 project_June2023          SWAT+ Jan 11 2024        MODULAR Rev 2024.61.0                                 
                                        zmx       usle_k       sumfc       sumul      usle_p     usle_ls        esco        epco     cn3_swf       perco     latq_co   tiledrain 
 sname           hydgrp                 (mm)                    (mm)        (mm)                                                                                     0=notile;1=tile;
Gbbr2_30        C                   600.0000      0.0000    103.2060    188.7709      1.0000      2.9548      0.9500      1.0000      0.0000      0.0500      0.9000           0
fuAdb2_0        C                  1250.0000      0.0000    148.5350    227.1940      1.0000      1.5033      0.9500      1.0000      0.0000      0.5000      0.9000           0
(G)bp_0         C                  1250.0000      0.0000    135.5500    152.5171      1.0000      0.5418      0.9500      1.0000      0.3000      0.5000      0.2000           0
EIp_20          C                  1250.0000      0.0000    174.9875    337.5174      1.0000      3.5595      0.9500      1.0000      0.0000      0.0500      0.9000           0
Gbbk4_30        C                   300.0000      0.0000     57.9690     94.3855      1.0000      6.5303      0.9500      1.0000      0.0000      0.0500      0.9000           0
Gbbk4_30        C                   300.0000      0.0000     57.9690     94.3855      1.0000      0.8856      0.9500      1.0000      0.0000      0.5000      0.9000           0
f2uGdb2_40      C                   800.0000      0.0000    122.2540    191.3310      1.0000      0.7829      0.9500      1.0000      0.0000      0.5000      0.9000           0
f2uGdb2_0       C                   800.0000      0.0000     92.6060    118.0972      1.0000      0.2506      0.9500      1.0000      0.3000      0.5000      0.2000           0
Gbbfi2_0        C                   600.0000      0.0000     68.1960     76.0723      1.0000      1.2028      0.9500      1.0000      0.0000      0.5000      0.9000           0
Gbbr2_30        C                   600.0000      0.0000    103.2060    188.7709      1.0000      1.5066      0.9500      1.0000      0.0000      0.5000      0.9000           0
Gbbf2_20        C                   600.0000      0.0000    107.5500    162.0083      1.0000      0.6268      0.9500      1.0000      0.3000      0.5000      0.2000           0
Gbbf2_20        C                   600.0000      0.0000    107.5500    162.0083      1.0000      0.7680      0.9500      1.0000      0.0000      0.5000      0.9000           0
Gbbf2_40        C                   600.0000      0.0000    129.4500    211.3347      1.0000      0.7901      0.9500      1.0000      0.0000      0.5000      0.9000           0
Gbbf2_20        C                   600.0000      0.0000    107.5500    162.0083      1.0000      0.8029      0.9500      1.0000      0.0000      0.5000      0.9000           0
Gbbf2_20        C                   600.0000      0.0000    107.5500    162.0083      1.0000      1.1001      0.9500      1.0000      0.0000      0.5000      0.9000           0
Gbbf2_0         C                   600.0000      0.0000     69.2820     78.9365      1.0000      0.5941      0.9500      1.0000      0.3000      0.5000      0.2000           0
Gbbf2_0         C                   600.0000      0.0000     69.2820     78.9365      1.0000      1.1037      0.9500      1.0000      0.0000      0.5000      0.9000           0
Gbbf2_40        C                   600.0000      0.0000    129.4500    211.3347      1.0000      0.5166      0.9500      1.0000      0.3000      0.5000      0.2000           0
uGdbt2_0        C                  1250.0000      0.0000    134.8660    158.7227      1.0000      2.3791      0.9500      1.0000      0.0000      0.0500      0.9000           0
Gbbf2_20        C                   600.0000      0.0000    107.5500    162.0083      1.0000      0.3746      0.9500      1.0000      0.3000      0.5000      0.2000           0
Gbbf2_20        C                   600.0000      0.0000    107.5500    162.0083      1.0000      0.9655      0.9500      1.0000      0.0000      0.5000      0.9000           0
Gbbf2_20        C                   600.0000      0.0000    107.5500    162.0083      1.0000      2.1964      0.9500      1.0000      0.0000      0.0500      0.9000           0
Gbbf2_20        C                   600.0000      0.0000    107.5500    162.0083      1.0000      3.2785      0.9500      1.0000      0.0000      0.0500      0.9000           0
Gbbf2_20        C                   600.0000      0.0000    107.5500    162.0083      1.0000      1.0753      0.9500      1.0000      0.0000      0.5000      0.9000           0
Gbbf2_20        C                   600.0000      0.0000    107.5500    162.0083      1.0000      1.4523      0.9500      1.0000      0.0000      0.5000      0.9000           0
Gbbf2_20        C                   600.0000      0.0000    107.5500    162.0083      1.0000      2.2446      0.9500      1.0000      0.0000      0.0500      0.9000           0
Gbbf2_20        C                   600.0000      0.0000    107.5500    162.0083      1.0000      0.4613      0.9500      1.0000      0.3000      0.5000      0.2000           0
Gbbf2_20        C                   600.0000      0.0000    107.5500    162.0083      1.0000      1.1726      0.9500      1.0000      0.0000      0.5000      0.9000           0
Gbbf2_20        C                   600.0000      0.0000    107.5500    162.0083      1.0000      1.5582      0.9500      1.0000      0.0000      0.5000      0.9000           0
Gbbf2_20        C                   600.0000      0.0000    107.5500    162.0083      1.0000      1.7702      0.9500      1.0000      0.0000      0.5000      0.9000           0
Gbbf2_20        C                   600.0000      0.0000    107.5500    162.0083      1.0000      3.1766      0.9500      1.0000      0.0000      0.0500      0.9000           0
Gdbr2_0         C                   600.0000      0.0000     64.9620     76.0723      1.0000      1.6173      0.9500      1.0000      0.0000      0.5000      0.9000           0
Gdbr2_0         C                   600.0000      0.0000     64.9620     76.0723      1.0000     14.1768      0.9500      1.0000      0.0000      0.0500      0.9000           0
Gdbr2_20        C                   600.0000      0.0000     77.5620    162.0083      1.0000      0.8315      0.9500      1.0000      0.0000      0.5000      0.9000           0
Gdbr2_20        C                   600.0000      0.0000     77.5620    162.0083      1.0000      0.8345      0.9500      1.0000      0.0000      0.5000      0.9000           0
f2uGdb2_40      C                   800.0000      0.0000    122.2540    191.3310      1.0000      0.6901      0.9500      1.0000      0.0000      0.5000      0.9000           0
Gdbr2_0         C                   600.0000      0.0000     64.9620     76.0723      1.0000      0.6410      0.9500      1.0000      0.3000      0.5000      0.2000           0
Gdbr2_20        C                   600.0000      0.0000     77.5620    162.0083      1.0000      0.9866      0.9500      1.0000      0.0000      0.5000      0.9000           0
Gdbr2_0         C                   600.0000      0.0000     64.9620     76.0723      1.0000      1.3572      0.9500      1.0000      0.0000      0.5000      0.9000           0
Gbbf2_20        C                   600.0000      0.0000    107.5500    162.0083      1.0000      1.0452      0.9500      1.0000      0.0000      0.5000      0.9000           0
Gbbf2_20        C                   600.0000      0.0000    107.5500    162.0083      1.0000      0.2291      0.9500      1.0000      0.3000      0.5000      0.2000           0
Gbbf2_0         C                   600.0000      0.0000     69.2820     78.9365      1.0000      0.1792      0.9500      1.0000      0.9500      0.5000      0.0100           0
Gbbf2_0         C                   600.0000      0.0000     69.2820     78.9365      1.0000      1.1979      0.9500      1.0000      0.0000      0.5000      0.9000           0
Gbbf2_0         C                   600.0000      0.0000     69.2820     78.9365      1.0000      0.3327      0.9500      1.0000      0.3000      0.5000      0.2000           0
f2uGdb2_20      C                   800.0000      0.0000    107.7420    158.4468      1.0000      0.2211      0.9500      1.0000      0.3000      0.5000      0.2000           0
f2uGdb2_20      C                   800.0000      0.0000    107.7420    158.4468      1.0000      0.2305      0.9500      1.0000      0.3000      0.5000      0.2000           0
f2uGdb2_20      C                   800.0000      0.0000    107.7420    158.4468      1.0000      0.1489      0.9500      1.0000      0.9500      0.5000      0.0100           0
f2uGdb2_40      C                   800.0000      0.0000    122.2540    191.3310      1.0000      0.1720      0.9500      1.0000      0.9500      0.5000      0.0100           0
f2uGdb2_20      C                   800.0000      0.0000    107.7420    158.4468      1.0000      0.2159      0.9500      1.0000      0.3000      0.5000      0.2000           0
f2uGdb2_20      C                   800.0000      0.0000    107.7420    158.4468      1.0000      0.2201      0.9500      1.0000      0.3000      0.5000      0.2000           0
f2uGdb2_20      C                   800.0000      0.0000    107.7420    158.4468      1.0000      0.4448      0.9500      1.0000      0.3000      0.5000      0.2000           0
f2uGdb2_20      C                   800.0000      0.0000    107.7420    158.4468      1.0000      0.2004      0.9500      1.0000      0.3000      0.5000      0.2000           0
f2uGdb2_20      C                   800.0000      0.0000    107.7420    158.4468      1.0000      0.2448      0.9500      1.0000      0.3000      0.5000      0.2000           0
Gbbf2_40        C                   600.0000      0.0000    129.4500    211.3347      1.0000      1.7143      0.9500      1.0000      0.0000      0.5000      0.9000           0
Gbbf2_20        C                   600.0000      0.0000    107.5500    162.0083      1.0000      1.6638      0.9500      1.0000      0.0000      0.5000      0.9000           0
NC_0            C                   600.0000      0.0000     69.2820     78.9365      1.0000      0.2046      0.9500      1.0000      0.3000      0.5000      0.2000           0
(G)bp_0         C                  1250.0000      0.0000    135.5500    152.5171      1.0000      0.5142      0.9500      1.0000      0.3000      0.5000      0.2000           0
Gbbk4_20        C                   300.0000      0.0000     53.7510     81.0042      1.0000      4.5745      0.9500      1.0000      0.0000      0.0500      0.9000           0
NC_30           C                   600.0000      0.0000    127.0740    188.7709      1.0000      1.7863      0.9500      1.0000      0.0000      0.5000      0.9000           0
Gbbk4_20        C                   300.0000      0.0000     53.7510     81.0042      1.0000      0.5803      0.9500      1.0000      0.3000      0.5000      0.2000           0
(G)bp_0         C                  1250.0000      0.0000    135.5500    152.5171      1.0000      0.6807      0.9500      1.0000      0.0000      0.5000      0.9000           0
Gbbk4_40        C                   300.0000      0.0000     60.8970    105.6674      1.0000      3.0781      0.9500      1.0000      0.0000      0.0500      0.9000           0
Gbbk4_0         C                   300.0000      0.0000     36.5730     36.6041      1.0000      0.3459      0.9500      1.0000      0.3000      0.5000      0.2000           0
(G)bp_20        C                  1250.0000      0.0000    205.2625    337.5174      1.0000      0.5598      0.9500      1.0000      0.3000      0.5000      0.2000           0
Gbbf2_40        C                   600.0000      0.0000    129.4500    211.3347      1.0000      1.1707      0.9500      1.0000      0.0000      0.5000      0.9000           0
Gbbf2_40        C                   600.0000      0.0000    129.4500    211.3347      1.0000      1.7081      0.9500      1.0000      0.0000      0.5000      0.9000           0
Gbbk4_20        C                   300.0000      0.0000     53.7510     81.0042      1.0000      0.5380      0.9500      1.0000      0.3000      0.5000      0.2000           0
Gbbk4_20        C                   300.0000      0.0000     53.7510     81.0042      1.0000      0.5145      0.9500      1.0000      0.3000      0.5000      0.2000           0
fuAdb2_40       C                  1250.0000      0.0000    197.6150    368.1791      1.0000      0.3395      0.9500      1.0000      0.3000      0.5000      0.2000           0
Gbbk4_20        C                   300.0000      0.0000     53.7510     81.0042      1.0000      1.5286      0.9500      1.0000      0.0000      0.5000      0.9000           0
Gbbk4_20        C                   300.0000      0.0000     53.7510     81.0042      1.0000      3.2671      0.9500      1.0000      0.0000      0.0500      0.9000           0
Gbbk4_20        C                   300.0000      0.0000     53.7510     81.0042      1.0000      0.3994      0.9500      1.0000      0.3000      0.5000      0.2000           0
Gbbk4_20        C                   300.0000      0.0000     53.7510     81.0042      1.0000      0.5360      0.9500      1.0000      0.3000      0.5000      0.2000           0
Gbbk4_20        C                   300.0000      0.0000     53.7510     81.0042      1.0000      0.2427      0.9500      1.0000      0.3000      0.5000      0.2000           0
Gbbk4_20        C                   300.0000      0.0000     53.7510     81.0042      1.0000      0.5278      0.9500      1.0000      0.3000      0.5000      0.2000           0
Gbbk4_20        C                   300.0000      0.0000     53.7510     81.0042      1.0000      1.1434      0.9500      1.0000      0.0000      0.5000      0.9000           0
Gbbk4_20        C                   300.0000      0.0000     53.7510     81.0042      1.0000      0.3704      0.9500      1.0000      0.3000      0.5000      0.2000           0
Gbbk4_20        C                   300.0000      0.0000     53.7510     81.0042      1.0000      0.3681      0.9500      1.0000      0.3000      0.5000      0.2000           0
Gbbk4_0         C                   300.0000      0.0000     36.5730     36.6041      1.0000      1.0470      0.9500      1.0000      0.0000      0.5000      0.9000           0
Gbbf2_40        C                   600.0000      0.0000    129.4500    211.3347      1.0000      1.4570      0.9500      1.0000      0.0000      0.5000      0.9000           0
Gbbk4_20        C                   300.0000      0.0000     53.7510     81.0042      1.0000      0.5529      0.9500      1.0000      0.3000      0.5000      0.2000           0
Gbbf2_40        C                   600.0000      0.0000    129.4500    211.3347      1.0000      1.2484      0.9500      1.0000      0.0000      0.5000      0.9000           0
Gbbf2_40        C                   600.0000      0.0000    129.4500    211.3347      1.0000      1.0964      0.9500      1.0000      0.0000      0.5000      0.9000           0
Gbbk4_20        C                   300.0000      0.0000     53.7510     81.0042      1.0000      0.5320      0.9500      1.0000      0.3000      0.5000      0.2000           0
Gbbk4_20        C                   300.0000      0.0000     53.7510     81.0042      1.0000      0.4800      0.9500      1.0000      0.3000      0.5000      0.2000           0
Gbbf2_40        C                   600.0000      0.0000    129.4500    211.3347      1.0000      1.0136      0.9500      1.0000      0.0000      0.5000      0.9000           0
Gbbk4_20        C                   300.0000      0.0000     53.7510     81.0042      1.0000      1.3031      0.9500      1.0000      0.0000      0.5000      0.9000           0
NC_40           C                   600.0000      0.0000    129.4500    211.3347      1.0000      2.0249      0.9500      1.0000      0.0000      0.0500      0.9000           0
NC_30           C                   600.0000      0.0000    127.0740    188.7709      1.0000      3.1387      0.9500      1.0000      0.0000      0.0500      0.9000           0
NC_30           C                   600.0000      0.0000    127.0740    188.7709      1.0000      2.6647      0.9500      1.0000      0.0000      0.0500      0.9000           0
NC_30           C                   600.0000      0.0000    127.0740    188.7709      1.0000      4.0166      0.9500      1.0000      0.0000      0.0500      0.9000           0
NC_40           C                   600.0000      0.0000    129.4500    211.3347      1.0000      4.6233      0.9500      1.0000      0.0000      0.0500      0.9000           0
NC_40           C                   600.0000      0.0000    129.4500    211.3347      1.0000      2.7113      0.9500      1.0000      0.0000      0.0500      0.9000           0
NC_30           C                   600.0000      0.0000    127.0740    188.7709      1.0000      3.8105      0.9500      1.0000      0.0000      0.0500      0.9000           0
NC_40           C                   600.0000      0.0000    129.4500    211.3347      1.0000      3.8925      0.9500      1.0000      0.0000      0.0500      0.9000           0
NC_40           C                   600.0000      0.0000    129.4500    211.3347      1.0000      3.5330      0.9500      1.0000      0.0000      0.0500      0.9000           0
fuAdb2_0        C                  1250.0000      0.0000    148.5350    227.1940      1.0000      1.5233      0.9500      1.0000      0.0000      0.5000      0.9000           0
NC_30           C                   600.0000      0.0000    127.0740    188.7709      1.0000      0.9967      0.9500      1.0000      0.0000      0.5000      0.9000           0
NC_30           C                   600.0000      0.0000    127.0740    188.7709      1.0000     14.0638      0.9500      1.0000      0.0000      0.0500      0.9000           0
fuAdb2_30       C                  1250.0000      0.0000    188.8910    347.5060      1.0000      2.7065      0.9500      1.0000      0.0000      0.0500      0.9000           0
NC_30           C                   600.0000      0.0000    127.0740    188.7709      1.0000      2.8494      0.9500      1.0000      0.0000      0.0500      0.9000           0
NC_40           C                   600.0000      0.0000    129.4500    211.3347      1.0000      0.2412      0.9500      1.0000      0.3000      0.5000      0.2000           0
NC_40           C                   600.0000      0.0000    129.4500    211.3347      1.0000      1.3524      0.9500      1.0000      0.0000      0.5000      0.9000           0
fuAdb2_30       C                  1250.0000      0.0000    188.8910    347.5060      1.0000      1.6663      0.9500      1.0000      0.0000      0.5000      0.9000           0
fuAdb2_40       C                  1250.0000      0.0000    197.6150    368.1791      1.0000      2.8593      0.9500      1.0000      0.0000      0.0500      0.9000           0
fuAdb2_30       C                  1250.0000      0.0000    188.8910    347.5060      1.0000      3.0686      0.9500      1.0000      0.0000      0.0500      0.9000           0
Gbbf2_0         C                   600.0000      0.0000     69.2820     78.9365      1.0000      0.4811      0.9500      1.0000      0.3000      0.5000      0.2000           0
Gbbf2_20        C                   600.0000      0.0000    107.5500    162.0083      1.0000      0.2086      0.9500      1.0000      0.3000      0.5000      0.2000           0
fuAdb2_30       C                  1250.0000      0.0000    188.8910    347.5060      1.0000      2.1518      0.9500      1.0000      0.0000      0.0500      0.9000           0
fuAdb2_40       C                  1250.0000      0.0000    197.6150    368.1791      1.0000      1.7171      0.9500      1.0000      0.0000      0.5000      0.9000           0
NC_0            C                   600.0000      0.0000     69.2820     78.9365      1.0000      2.3405      0.9500      1.0000      0.0000      0.0500      0.9000           0
fuAdb2_40       C                  1250.0000      0.0000    197.6150    368.1791      1.0000      2.3346      0.9500      1.0000      0.0000      0.0500      0.9000           0
fuAdb2_30       C                  1250.0000      0.0000    188.8910    347.5060      1.0000      3.0426      0.9500      1.0000      0.0000      0.0500      0.9000           0
NC_30           C                   600.0000      0.0000    127.0740    188.7709      1.0000      2.5291      0.9500      1.0000      0.0000      0.0500      0.9000           0
fuAdb2_40       C                  1250.0000      0.0000    197.6150    368.1791      1.0000      1.0969      0.9500      1.0000      0.0000      0.5000      0.9000           0
fuAdb2_40       C                  1250.0000      0.0000    197.6150    368.1791      1.0000      0.3633      0.9500      1.0000      0.3000      0.5000      0.2000           0
NC_0            C                   600.0000      0.0000     69.2820     78.9365      1.0000      2.8729      0.9500      1.0000      0.0000      0.0500      0.9000           0
uGdbt2_0        C                  1250.0000      0.0000    134.8660    158.7227      1.0000      0.9319      0.9500      1.0000      0.0000      0.5000      0.9000           0
(G)bp_0         C                  1250.0000      0.0000    135.5500    152.5171      1.0000      1.3294      0.9500      1.0000      0.0000      0.5000      0.9000           0
fuAdb2_40       C                  1250.0000      0.0000    197.6150    368.1791      1.0000      0.6724      0.9500      1.0000      0.3000      0.5000      0.2000           0
NC_0            C                   600.0000      0.0000     69.2820     78.9365      1.0000      0.4366      0.9500      1.0000      0.3000      0.5000      0.2000           0
NC_0            C                   600.0000      0.0000     69.2820     78.9365      1.0000      0.9465      0.9500      1.0000      0.0000      0.5000      0.9000           0
NC_0            C                   600.0000      0.0000     69.2820     78.9365      1.0000      0.3711      0.9500      1.0000      0.3000      0.5000      0.2000           0
NC_30           C                   600.0000      0.0000    127.0740    188.7709      1.0000      3.6773      0.9500      1.0000      0.0000      0.0500      0.9000           0
f2uGdb2_20      C                   800.0000      0.0000    107.7420    158.4468      1.0000      3.5745      0.9500      1.0000      0.0000      0.0500      0.9000           0
NC_0            C                   600.0000      0.0000     69.2820     78.9365      1.0000      0.8889      0.9500      1.0000      0.0000      0.5000      0.9000           0
NC_0            C                   600.0000      0.0000     69.2820     78.9365      1.0000      1.6200      0.9500      1.0000      0.0000      0.5000      0.9000           0
NC_0            C                   600.0000      0.0000     69.2820     78.9365      1.0000      0.5813      0.9500      1.0000      0.3000      0.5000      0.2000           0
(G)bp_0         C                  1250.0000      0.0000    135.5500    152.5171      1.0000      1.6330      0.9500      1.0000      0.0000      0.5000      0.9000           0
(G)bp_0         C                  1250.0000      0.0000    135.5500    152.5171      1.0000      2.7130      0.9500      1.0000      0.0000      0.0500      0.9000           0
uGdbt2_30       C                  1250.0000      0.0000    192.3340    274.2855      1.0000      1.3526      0.9500      1.0000      0.0000      0.5000      0.9000           0
(G)bp_0         C                  1250.0000      0.0000    135.5500    152.5171      1.0000      2.2391      0.9500      1.0000      0.0000      0.0500      0.9000           0
NC_0            C                   600.0000      0.0000     69.2820     78.9365      1.0000      0.5977      0.9500      1.0000      0.3000      0.5000      0.2000           0
EDp_20          C                  1250.0000      0.0000    174.9875    337.5174      1.0000      2.3254      0.9500      1.0000      0.0000      0.0500      0.9000           0
NC_0            C                   600.0000      0.0000     69.2820     78.9365      1.0000      1.0457      0.9500      1.0000      0.0000      0.5000      0.9000           0
uGdbt2_40       C                  1250.0000      0.0000    194.7100    296.8493      1.0000      0.9463      0.9500      1.0000      0.0000      0.5000      0.9000           0
EDp_20          C                  1250.0000      0.0000    174.9875    337.5174      1.0000      0.3632      0.9500      1.0000      0.3000      0.5000      0.2000           0
NC_0            C                   600.0000      0.0000     69.2820     78.9365      1.0000      0.7053      0.9500      1.0000      0.0000      0.5000      0.9000           0
NC_40           C                   600.0000      0.0000    129.4500    211.3347      1.0000      1.7499      0.9500      1.0000      0.0000      0.5000      0.9000           0
Gbbk4_20        C                   300.0000      0.0000     53.7510     81.0042      1.0000      1.5216      0.9500      1.0000      0.0000      0.5000      0.9000           0
NC_30           C                   600.0000      0.0000    127.0740    188.7709      1.0000      1.0382      0.9500      1.0000      0.0000      0.5000      0.9000           0
fuAdb2_30       C                  1250.0000      0.0000    188.8910    347.5060      1.0000      2.1215      0.9500      1.0000      0.0000      0.0500      0.9000           0
Gbbk4_20        C                   300.0000      0.0000     53.7510     81.0042      1.0000      0.3858      0.9500      1.0000      0.3000      0.5000      0.2000           0
fuAdb2_0        C                  1250.0000      0.0000    148.5350    227.1940      1.0000      0.2942      0.9500      1.0000      0.3000      0.5000      0.2000           0
Gbbk4_20        C                   300.0000      0.0000     53.7510     81.0042      1.0000      0.2261      0.9500      1.0000      0.3000      0.5000      0.2000           0
Gbbk4_20        C                   300.0000      0.0000     53.7510     81.0042      1.0000      0.3232      0.9500      1.0000      0.3000      0.5000      0.2000           0
Gbbk4_20        C                   300.0000      0.0000     53.7510     81.0042      1.0000      0.3753      0.9500      1.0000      0.3000      0.5000      0.2000           0
Gbbk4_20        C                   300.0000      0.0000     53.7510     81.0042      1.0000      0.2885      0.9500      1.0000      0.3000      0.5000      0.2000           0
Gbbk4_20        C                   300.0000      0.0000     53.7510     81.0042      1.0000      0.4713      0.9500      1.0000      0.3000      0.5000      0.2000           0
Gbbk4_20        C                   300.0000      0.0000     53.7510     81.0042      1.0000      0.4838      0.9500      1.0000      0.3000      0.5000      0.2000           0
Gbbk4_20        C                   300.0000      0.0000     53.7510     81.0042      1.0000      0.5628      0.9500      1.0000      0.3000      0.5000      0.2000           0
Gbbk4_20        C                   300.0000      0.0000     53.7510     81.0042      1.0000      0.4077      0.9500      1.0000      0.3000      0.5000      0.2000           0
Gbbk4_30        C                   300.0000      0.0000     57.9690     94.3855      1.0000      1.3464      0.9500      1.0000      0.0000      0.5000      0.9000           0
Gbbf2_20        C                   600.0000      0.0000    107.5500    162.0083      1.0000      0.9724      0.9500      1.0000      0.0000      0.5000      0.9000           0
Gbbk4_20        C                   300.0000      0.0000     53.7510     81.0042      1.0000      2.4520      0.9500      1.0000      0.0000      0.0500      0.9000           0
Gbbf2_20        C                   600.0000      0.0000    107.5500    162.0083      1.0000      0.8855      0.9500      1.0000      0.0000      0.5000      0.9000           0
Gbbf2_20        C                   600.0000      0.0000    107.5500    162.0083      1.0000      0.4484      0.9500      1.0000      0.3000      0.5000      0.2000           0
EIp_40          C                  1250.0000      0.0000    216.6875    440.2807      1.0000      0.3562      0.9500      1.0000      0.3000      0.5000      0.2000           0
Gbbf2_20        C                   600.0000      0.0000    107.5500    162.0083      1.0000      0.5473      0.9500      1.0000      0.3000      0.5000      0.2000           0
EIp_40          C                  1250.0000      0.0000    216.6875    440.2807      1.0000      0.2617      0.9500      1.0000      0.3000      0.5000      0.2000           0
Gbbf2_20        C                   600.0000      0.0000    107.5500    162.0083      1.0000      0.2824      0.9500      1.0000      0.3000      0.5000      0.2000           0
Gbbk4_20        C                   300.0000      0.0000     53.7510     81.0042      1.0000      0.9179      0.9500      1.0000      0.0000      0.5000      0.9000           0
fuAdb2_40       C                  1250.0000      0.0000    197.6150    368.1791      1.0000      0.9545      0.9500      1.0000      0.0000      0.5000      0.9000           0
(G)bp_0         C                  1250.0000      0.0000    135.5500    152.5171      1.0000      0.3208      0.9500      1.0000      0.3000      0.5000      0.2000           0
(G)bp_0         C                  1250.0000      0.0000    135.5500    152.5171      1.0000      0.5563      0.9500      1.0000      0.3000      0.5000      0.2000           0
(G)bp_40        C                  1250.0000      0.0000    254.9125    440.2807      1.0000      0.3464      0.9500      1.0000      0.3000      0.5000      0.2000           0
Gbbk4_20        C                   300.0000      0.0000     53.7510     81.0042      1.0000      0.4957      0.9500      1.0000      0.3000      0.5000      0.2000           0
fuAdb2_30       C                  1250.0000      0.0000    188.8910    347.5060      1.0000      0.4273      0.9500      1.0000      0.3000      0.5000      0.2000           0
fuAdb2_30       C                  1250.0000      0.0000    188.8910    347.5060      1.0000      0.5230      0.9500      1.0000      0.3000      0.5000      0.2000           0
fuAdb2_30       C                  1250.0000      0.0000    188.8910    347.5060      1.0000      0.2407      0.9500      1.0000      0.3000      0.5000      0.2000           0
fuAdb2_30       C                  1250.0000      0.0000    188.8910    347.5060      1.0000      0.1939      0.9500      1.0000      0.9500      0.5000      0.0100           0
NC_40           C                   600.0000      0.0000    129.4500    211.3347      1.0000      0.2137      0.9500      1.0000      0.3000      0.5000      0.2000           0
fuAdb2_30       C                  1250.0000      0.0000    188.8910    347.5060      1.0000      0.6049      0.9500      1.0000      0.3000      0.5000      0.2000           0
fuAdb2_30       C                  1250.0000      0.0000    188.8910    347.5060      1.0000      1.2514      0.9500      1.0000      0.0000      0.5000      0.9000           0
fuAdb2_30       C                  1250.0000      0.0000    188.8910    347.5060      1.0000      2.0789      0.9500      1.0000      0.0000      0.0500      0.9000           0
uGdbt2_30       C                  1250.0000      0.0000    192.3340    274.2855      1.0000      0.5441      0.9500      1.0000      0.3000      0.5000      0.2000           0
Gbbf2_20        C                   600.0000      0.0000    107.5500    162.0083      1.0000      1.0231      0.9500      1.0000      0.0000      0.5000      0.9000           0
Gbbf2_0         C                   600.0000      0.0000     69.2820     78.9365      1.0000      0.4665      0.9500      1.0000      0.3000      0.5000      0.2000           0
Gbbf2_0         C                   600.0000      0.0000     69.2820     78.9365      1.0000      0.3989      0.9500      1.0000      0.3000      0.5000      0.2000           0
NC_40           C                   600.0000      0.0000    129.4500    211.3347      1.0000      2.4214      0.9500      1.0000      0.0000      0.0500      0.9000           0
fuAdb2_40       C                  1250.0000      0.0000    197.6150    368.1791      1.0000      0.7266      0.9500      1.0000      0.0000      0.5000      0.9000           0
Gbbf2_20        C                   600.0000      0.0000    107.5500    162.0083      1.0000      0.6262      0.9500      1.0000      0.3000      0.5000      0.2000           0
Gbbf2_0         C                   600.0000      0.0000     69.2820     78.9365      1.0000      0.5934      0.9500      1.0000      0.3000      0.5000      0.2000           0
NC_30           C                   600.0000      0.0000    127.0740    188.7709      1.0000      1.4839      0.9500      1.0000      0.0000      0.5000      0.9000           0
fuAdb2_30       C                  1250.0000      0.0000    188.8910    347.5060      1.0000      0.4429      0.9500      1.0000      0.3000      0.5000      0.2000           0
fuAdb2_30       C                  1250.0000      0.0000    188.8910    347.5060      1.0000      0.2609      0.9500      1.0000      0.3000      0.5000      0.2000           0
fuAdb2_0        C                  1250.0000      0.0000    148.5350    227.1940      1.0000      0.7105      0.9500      1.0000      0.0000      0.5000      0.9000           0
(G)bp_0         C                  1250.0000      0.0000    135.5500    152.5171      1.0000      0.3695      0.9500      1.0000      0.3000      0.5000      0.2000           0
Gbbk4_20        C                   300.0000      0.0000     53.7510     81.0042      1.0000      0.3654      0.9500      1.0000      0.3000      0.5000      0.2000           0
Gbbk4_0         C                   300.0000      0.0000     36.5730     36.6041      1.0000      1.3029      0.9500      1.0000      0.0000      0.5000      0.9000           0
Gbbk4_20        C                   300.0000      0.0000     53.7510     81.0042      1.0000      1.1340      0.9500      1.0000      0.0000      0.5000      0.9000           0
Gbbk4_20        C                   300.0000      0.0000     53.7510     81.0042      1.0000      1.0005      0.9500      1.0000      0.0000      0.5000      0.9000           0
Gbbk4_20        C                   300.0000      0.0000     53.7510     81.0042      1.0000      0.5478      0.9500      1.0000      0.3000      0.5000      0.2000           0
Gbbk4_20        C                   300.0000      0.0000     53.7510     81.0042      1.0000      0.7133      0.9500      1.0000      0.0000      0.5000      0.9000           0
fuAdb2_0        C                  1250.0000      0.0000    148.5350    227.1940      1.0000      0.4372      0.9500      1.0000      0.3000      0.5000      0.2000           0
Gbbf2_30        C                   600.0000      0.0000    127.0740    188.7709      1.0000      1.3175      0.9500      1.0000      0.0000      0.5000      0.9000           0
fuAdb2_30       C                  1250.0000      0.0000    188.8910    347.5060      1.0000      0.4431      0.9500      1.0000      0.3000      0.5000      0.2000           0
fuAdb2_40       C                  1250.0000      0.0000    197.6150    368.1791      1.0000      0.6143      0.9500      1.0000      0.3000      0.5000      0.2000           0
fuAdb2_30       C                  1250.0000      0.0000    188.8910    347.5060      1.0000      2.3735      0.9500      1.0000      0.0000      0.0500      0.9000           0
NC_30           C                   600.0000      0.0000    127.0740    188.7709      1.0000      1.3407      0.9500      1.0000      0.0000      0.5000      0.9000           0
NC_40           C                   600.0000      0.0000    129.4500    211.3347      1.0000      1.6975      0.9500      1.0000      0.0000      0.5000      0.9000           0
fuAdb2_40       C                  1250.0000      0.0000    197.6150    368.1791      1.0000      2.3703      0.9500      1.0000      0.0000      0.0500      0.9000           0
fuAdb2_40       C                  1250.0000      0.0000    197.6150    368.1791      1.0000      1.3619      0.9500      1.0000      0.0000      0.5000      0.9000           0
(G)bp_40        C                  1250.0000      0.0000    254.9125    440.2807      1.0000      0.7693      0.9500      1.0000      0.0000      0.5000      0.9000           0
Gbbk4_30        C                   300.0000      0.0000     57.9690     94.3855      1.0000      0.8863      0.9500      1.0000      0.0000      0.5000      0.9000           0
EIp_20          C                  1250.0000      0.0000    174.9875    337.5174      1.0000      1.3804      0.9500      1.0000      0.0000      0.5000      0.9000           0
fuAdb2_0        C                  1250.0000      0.0000    148.5350    227.1940      1.0000      0.7418      0.9500      1.0000      0.0000      0.5000      0.9000           0
NC_0            C                   600.0000      0.0000     69.2820     78.9365      1.0000      1.3249      0.9500      1.0000      0.0000      0.5000      0.9000           0
fuAdb2_0        C                  1250.0000      0.0000    148.5350    227.1940      1.0000      2.4430      0.9500      1.0000      0.0000      0.0500      0.9000           0
fuAdb2_40       C                  1250.0000      0.0000    197.6150    368.1791      1.0000      1.7845      0.9500      1.0000      0.0000      0.5000      0.9000           0
NC_30           C                   600.0000      0.0000    127.0740    188.7709      1.0000      2.0075      0.9500      1.0000      0.0000      0.0500      0.9000           0
NC_30           C                   600.0000      0.0000    127.0740    188.7709      1.0000      2.4271      0.9500      1.0000      0.0000      0.0500      0.9000           0
Gbbf2_40        C                   600.0000      0.0000    129.4500    211.3347      1.0000      1.5408      0.9500      1.0000      0.0000      0.5000      0.9000           0
Gbbf2_40        C                   600.0000      0.0000    129.4500    211.3347      1.0000      1.2846      0.9500      1.0000      0.0000      0.5000      0.9000           0
Gbbf2_40        C                   600.0000      0.0000    129.4500    211.3347      1.0000      0.7802      0.9500      1.0000      0.0000      0.5000      0.9000           0
Gbbk4_20        C                   300.0000      0.0000     53.7510     81.0042      1.0000      0.2694      0.9500      1.0000      0.3000      0.5000      0.2000           0
Gbbf2_40        C                   600.0000      0.0000    129.4500    211.3347      1.0000      0.8658      0.9500      1.0000      0.0000      0.5000      0.9000           0
Gbbk4_20        C                   300.0000      0.0000     53.7510     81.0042      1.0000      0.2679      0.9500      1.0000      0.3000      0.5000      0.2000           0
Gbbk4_20        C                   300.0000      0.0000     53.7510     81.0042      1.0000      0.3087      0.9500      1.0000      0.3000      0.5000      0.2000           0
(G)bp_0         C                  1250.0000      0.0000    135.5500    152.5171      1.0000      0.5679      0.9500      1.0000      0.3000      0.5000      0.2000           0
(G)bp_20        C                  1250.0000      0.0000    205.2625    337.5174      1.0000      0.6312      0.9500      1.0000      0.3000      0.5000      0.2000           0
fuAdb2_20       C                  1250.0000      0.0000    180.5210    322.9860      1.0000      0.3914      0.9500      1.0000      0.3000      0.5000      0.2000           0
Gbbk4_30        C                   300.0000      0.0000     57.9690     94.3855      1.0000      0.4028      0.9500      1.0000      0.3000      0.5000      0.2000           0
(G)bp_0         C                  1250.0000      0.0000    135.5500    152.5171      1.0000      0.1786      0.9500      1.0000      0.9500      0.5000      0.0100           0
Gbbk4_20        C                   300.0000      0.0000     53.7510     81.0042      1.0000      1.4357      0.9500      1.0000      0.0000      0.5000      0.9000           0
Gbbk4_20        C                   300.0000      0.0000     53.7510     81.0042      1.0000      0.5735      0.9500      1.0000      0.3000      0.5000      0.2000           0
Gbbk4_20        C                   300.0000      0.0000     53.7510     81.0042      1.0000      2.6002      0.9500      1.0000      0.0000      0.0500      0.9000           0
Gbbk4_30        C                   300.0000      0.0000     57.9690     94.3855      1.0000      0.5671      0.9500      1.0000      0.3000      0.5000      0.2000           0
fuAdb2_20       C                  1250.0000      0.0000    180.5210    322.9860      1.0000      1.0577      0.9500      1.0000      0.0000      0.5000      0.9000           0
Gbbk4_20        C                   300.0000      0.0000     53.7510     81.0042      1.0000      0.3582      0.9500      1.0000      0.3000      0.5000      0.2000           0
Gbbk4_20        C                   300.0000      0.0000     53.7510     81.0042      1.0000      2.1424      0.9500      1.0000      0.0000      0.0500      0.9000           0
Gbbk4_20        C                   300.0000      0.0000     53.7510     81.0042      1.0000      1.3368      0.9500      1.0000      0.0000      0.5000      0.9000           0
Gbbk4_20        C                   300.0000      0.0000     53.7510     81.0042      1.0000      0.7827      0.9500      1.0000      0.0000      0.5000      0.9000           0
NC_0            C                   600.0000      0.0000     69.2820     78.9365      1.0000      0.2612      0.9500      1.0000      0.3000      0.5000      0.2000           0
fuAdb2_0        C                  1250.0000      0.0000    148.5350    227.1940      1.0000      2.7286      0.9500      1.0000      0.0000      0.0500      0.9000           0
Gbbk4_20        C                   300.0000      0.0000     53.7510     81.0042      1.0000      1.1709      0.9500      1.0000      0.0000      0.5000      0.9000           0
NC_40           C                   600.0000      0.0000    129.4500    211.3347      1.0000      2.2142      0.9500      1.0000      0.0000      0.0500      0.9000           0
NC_0            C                   600.0000      0.0000     69.2820     78.9365      1.0000      1.2016      0.9500      1.0000      0.0000      0.5000      0.9000           0
fuAdb2_40       C                  1250.0000      0.0000    197.6150    368.1791      1.0000      0.1954      0.9500      1.0000      0.9500      0.5000      0.0100           0
fuAdb2_40       C                  1250.0000      0.0000    197.6150    368.1791      1.0000      1.3128      0.9500      1.0000      0.0000      0.5000      0.9000           0
NC_0            C                   600.0000      0.0000     69.2820     78.9365      1.0000      0.3151      0.9500      1.0000      0.3000      0.5000      0.2000           0
fuAdb2_0        C                  1250.0000      0.0000    148.5350    227.1940      1.0000      0.5141      0.9500      1.0000      0.3000      0.5000      0.2000           0
fuAdb2_30       C                  1250.0000      0.0000    188.8910    347.5060      1.0000      0.5022      0.9500      1.0000      0.3000      0.5000      0.2000           0
NC_0            C                   600.0000      0.0000     69.2820     78.9365      1.0000      1.0227      0.9500      1.0000      0.0000      0.5000      0.9000           0
NC_30           C                   600.0000      0.0000    127.0740    188.7709      1.0000      1.0338      0.9500      1.0000      0.0000      0.5000      0.9000           0
NC_30           C                   600.0000      0.0000    127.0740    188.7709      1.0000      1.9576      0.9500      1.0000      0.0000      0.0500      0.9000           0
Gbbk4_20        C                   300.0000      0.0000     53.7510     81.0042      1.0000      0.7744      0.9500      1.0000      0.0000      0.5000      0.9000           0
Gbbk4_20        C                   300.0000      0.0000     53.7510     81.0042      1.0000      1.4479      0.9500      1.0000      0.0000      0.5000      0.9000           0
Gbbk4_0         C                   300.0000      0.0000     36.5730     36.6041      1.0000      7.9539      0.9500      1.0000      0.0000      0.0500      0.9000           0
Gbbk4_20        C                   300.0000      0.0000     53.7510     81.0042      1.0000      0.4409      0.9500      1.0000      0.3000      0.5000      0.2000           0
NC_0            C                   600.0000      0.0000     69.2820     78.9365      1.0000      0.5065      0.9500      1.0000      0.3000      0.5000      0.2000           0
NC_0            C                   600.0000      0.0000     69.2820     78.9365      1.0000      2.0142      0.9500      1.0000      0.0000      0.0500      0.9000           0
NC_0            C                   600.0000      0.0000     69.2820     78.9365      1.0000      1.9794      0.9500      1.0000      0.0000      0.0500      0.9000           0
NC_40           C                   600.0000      0.0000    129.4500    211.3347      1.0000      3.2656      0.9500      1.0000      0.0000      0.0500      0.9000           0
NC_40           C                   600.0000      0.0000    129.4500    211.3347      1.0000      0.9868      0.9500      1.0000      0.0000      0.5000      0.9000           0
NC_0            C                   600.0000      0.0000     69.2820     78.9365      1.0000      1.9812      0.9500      1.0000      0.0000      0.0500      0.9000           0
NC_30           C                   600.0000      0.0000    127.0740    188.7709      1.0000      2.3673      0.9500      1.0000      0.0000      0.0500      0.9000           0
NC_30           C                   600.0000      0.0000    127.0740    188.7709      1.0000      0.4450      0.9500      1.0000      0.3000      0.5000      0.2000           0
NC_30           C                   600.0000      0.0000    127.0740    188.7709      1.0000      0.2121      0.9500      1.0000      0.3000      0.5000      0.2000           0
NC_0            C                   600.0000      0.0000     69.2820     78.9365      1.0000      0.5339      0.9500      1.0000      0.3000      0.5000      0.2000           0
NC_40           C                   600.0000      0.0000    129.4500    211.3347      1.0000      0.7193      0.9500      1.0000      0.0000      0.5000      0.9000           0
Gbbk4_20        C                   300.0000      0.0000     53.7510     81.0042      1.0000      0.5191      0.9500      1.0000      0.3000      0.5000      0.2000           0
Gbbk4_20        C                   300.0000      0.0000     53.7510     81.0042      1.0000      0.3271      0.9500      1.0000      0.3000      0.5000      0.2000           0
Gbbk4_20        C                   300.0000      0.0000     53.7510     81.0042      1.0000      0.3775      0.9500      1.0000      0.3000      0.5000      0.2000           0
Gbbk4_20        C                   300.0000      0.0000     53.7510     81.0042      1.0000      0.3934      0.9500      1.0000      0.3000      0.5000      0.2000           0
Gbbk4_20        C                   300.0000      0.0000     53.7510     81.0042      1.0000      1.2412      0.9500      1.0000      0.0000      0.5000      0.9000           0
Gbbk4_20        C                   300.0000      0.0000     53.7510     81.0042      1.0000      0.8746      0.9500      1.0000      0.0000      0.5000      0.9000           0
Gbbk4_20        C                   300.0000      0.0000     53.7510     81.0042      1.0000      0.4408      0.9500      1.0000      0.3000      0.5000      0.2000           0
Gbbk4_0         C                   300.0000      0.0000     36.5730     36.6041      1.0000      0.9639      0.9500      1.0000      0.0000      0.5000      0.9000           0
(G)bp_0         C                  1250.0000      0.0000    135.5500    152.5171      1.0000      0.7898      0.9500      1.0000      0.0000      0.5000      0.9000           0
(G)bp_0         C                  1250.0000      0.0000    135.5500    152.5171      1.0000      2.5437      0.9500      1.0000      0.0000      0.0500      0.9000           0
(G)bp_0         C                  1250.0000      0.0000    135.5500    152.5171      1.0000      1.3000      0.9500      1.0000      0.0000      0.5000      0.9000           0
Gbbk4_20        C                   300.0000      0.0000     53.7510     81.0042      1.0000      0.8904      0.9500      1.0000      0.0000      0.5000      0.9000           0
Gbbk4_20        C                   300.0000      0.0000     53.7510     81.0042      1.0000      0.6936      0.9500      1.0000      0.0000      0.5000      0.9000           0
Gbbk4_20        C                   300.0000      0.0000     53.7510     81.0042      1.0000      0.6280      0.9500      1.0000      0.3000      0.5000      0.2000           0
Gbbk4_20        C                   300.0000      0.0000     53.7510     81.0042      1.0000      0.6729      0.9500      1.0000      0.3000      0.5000      0.2000           0
Gbbk4_20        C                   300.0000      0.0000     53.7510     81.0042      1.0000      0.8706      0.9500      1.0000      0.0000      0.5000      0.9000           0
Gbbk4_20        C                   300.0000      0.0000     53.7510     81.0042      1.0000      0.3953      0.9500      1.0000      0.3000      0.5000      0.2000           0
Gbbk4_20        C                   300.0000      0.0000     53.7510     81.0042      1.0000      0.7181      0.9500      1.0000      0.0000      0.5000      0.9000           0
Gbbk4_20        C                   300.0000      0.0000     53.7510     81.0042      1.0000      0.8160      0.9500      1.0000      0.0000      0.5000      0.9000           0
Gbbk4_20        C                   300.0000      0.0000     53.7510     81.0042      1.0000      0.4993      0.9500      1.0000      0.3000      0.5000      0.2000           0
Gbbk4_20        C                   300.0000      0.0000     53.7510     81.0042      1.0000      0.4550      0.9500      1.0000      0.3000      0.5000      0.2000           0
Gbbk4_20        C                   300.0000      0.0000     53.7510     81.0042      1.0000      1.1449      0.9500      1.0000      0.0000      0.5000      0.9000           0
Gbbk4_20        C                   300.0000      0.0000     53.7510     81.0042      1.0000      0.6480      0.9500      1.0000      0.3000      0.5000      0.2000           0
Gbbk4_20        C                   300.0000      0.0000     53.7510     81.0042      1.0000      0.5674      0.9500      1.0000      0.3000      0.5000      0.2000           0
Gbbk4_20        C                   300.0000      0.0000     53.7510     81.0042      1.0000      1.1604      0.9500      1.0000      0.0000      0.5000      0.9000           0
Gbbk4_20        C                   300.0000      0.0000     53.7510     81.0042      1.0000      0.6258      0.9500      1.0000      0.3000      0.5000      0.2000           0
Gbbk4_20        C                   300.0000      0.0000     53.7510     81.0042      1.0000      0.6332      0.9500      1.0000      0.3000      0.5000      0.2000           0
Gbbk4_20        C                   300.0000      0.0000     53.7510     81.0042      1.0000      0.4141      0.9500      1.0000      0.3000      0.5000      0.2000           0
Gbbk4_20        C                   300.0000      0.0000     53.7510     81.0042      1.0000      0.4738      0.9500      1.0000      0.3000      0.5000      0.2000           0
Gbbk4_20        C                   300.0000      0.0000     53.7510     81.0042      1.0000      0.2727      0.9500      1.0000      0.3000      0.5000      0.2000           0
(G)bp_0         C                  1250.0000      0.0000    135.5500    152.5171      1.0000      1.4789      0.9500      1.0000      0.0000      0.5000      0.9000           0
(G)bp_0         C                  1250.0000      0.0000    135.5500    152.5171      1.0000      0.8677      0.9500      1.0000      0.0000      0.5000      0.9000           0
(G)bp_30        C                  1250.0000      0.0000    237.0625    393.2728      1.0000      1.5103      0.9500      1.0000      0.0000      0.5000      0.9000           0
Gbbf2_0         C                   600.0000      0.0000     69.2820     78.9365      1.0000      5.0763      0.9500      1.0000      0.0000      0.0500      0.9000           0
Gbbf2_40        C                   600.0000      0.0000    129.4500    211.3347      1.0000      0.8452      0.9500      1.0000      0.0000      0.5000      0.9000           0
Gbbk4_30        C                   300.0000      0.0000     57.9690     94.3855      1.0000      2.8834      0.9500      1.0000      0.0000      0.0500      0.9000           0
Gbbk4_30        C                   300.0000      0.0000     57.9690     94.3855      1.0000      1.0419      0.9500      1.0000      0.0000      0.5000      0.9000           0
Gbbf2_40        C                   600.0000      0.0000    129.4500    211.3347      1.0000      1.0422      0.9500      1.0000      0.0000      0.5000      0.9000           0
Gbbk4_20        C                   300.0000      0.0000     53.7510     81.0042      1.0000      1.0556      0.9500      1.0000      0.0000      0.5000      0.9000           0
Gbbk4_20        C                   300.0000      0.0000     53.7510     81.0042      1.0000      0.7688      0.9500      1.0000      0.0000      0.5000      0.9000           0
Gbbk4_20        C                   300.0000      0.0000     53.7510     81.0042      1.0000      0.6340      0.9500      1.0000      0.3000      0.5000      0.2000           0
Gbbk4_20        C                   300.0000      0.0000     53.7510     81.0042      1.0000      0.6064      0.9500      1.0000      0.3000      0.5000      0.2000           0
Gbbk4_20        C                   300.0000      0.0000     53.7510     81.0042      1.0000      1.0971      0.9500      1.0000      0.0000      0.5000      0.9000           0
Gbbk4_20        C                   300.0000      0.0000     53.7510     81.0042      1.0000      0.7169      0.9500      1.0000      0.0000      0.5000      0.9000           0
Gbbk4_20        C                   300.0000      0.0000     53.7510     81.0042      1.0000      0.2958      0.9500      1.0000      0.3000      0.5000      0.2000           0
Gbbk4_20        C                   300.0000      0.0000     53.7510     81.0042      1.0000      1.0367      0.9500      1.0000      0.0000      0.5000      0.9000           0
Gbbk4_20        C                   300.0000      0.0000     53.7510     81.0042      1.0000      0.3884      0.9500      1.0000      0.3000      0.5000      0.2000           0
Gbbf2_30        C                   600.0000      0.0000    127.0740    188.7709      1.0000      0.6843      0.9500      1.0000      0.0000      0.5000      0.9000           0
Gbbk4_20        C                   300.0000      0.0000     53.7510     81.0042      1.0000      0.9754      0.9500      1.0000      0.0000      0.5000      0.9000           0
Gbbf2_20        C                   600.0000      0.0000    107.5500    162.0083      1.0000      0.5963      0.9500      1.0000      0.3000      0.5000      0.2000           0
Gbbf2_40        C                   600.0000      0.0000    129.4500    211.3347      1.0000      1.1184      0.9500      1.0000      0.0000      0.5000      0.9000           0
Gbbf2_20        C                   600.0000      0.0000    107.5500    162.0083      1.0000      0.8467      0.9500      1.0000      0.0000      0.5000      0.9000           0
Gbbf2_0         C                   600.0000      0.0000     69.2820     78.9365      1.0000      1.0727      0.9500      1.0000      0.0000      0.5000      0.9000           0
Gbbf2_40        C                   600.0000      0.0000    129.4500    211.3347      1.0000      1.6679      0.9500      1.0000      0.0000      0.5000      0.9000           0
Gbbk4_20        C                   300.0000      0.0000     53.7510     81.0042      1.0000      1.5790      0.9500      1.0000      0.0000      0.5000      0.9000           0
Gbbf2_0         C                   600.0000      0.0000     69.2820     78.9365      1.0000      0.2428      0.9500      1.0000      0.3000      0.5000      0.2000           0
Gbbk4_20        C                   300.0000      0.0000     53.7510     81.0042      1.0000      1.2035      0.9500      1.0000      0.0000      0.5000      0.9000           0
Gbbk4_20        C                   300.0000      0.0000     53.7510     81.0042      1.0000      0.5735      0.9500      1.0000      0.3000      0.5000      0.2000           0
Gbbk4_20        C                   300.0000      0.0000     53.7510     81.0042      1.0000      1.2947      0.9500      1.0000      0.0000      0.5000      0.9000           0
Gbbk4_20        C                   300.0000      0.0000     53.7510     81.0042      1.0000      1.5571      0.9500      1.0000      0.0000      0.5000      0.9000           0
Gbbk4_20        C                   300.0000      0.0000     53.7510     81.0042      1.0000      0.7861      0.9500      1.0000      0.0000      0.5000      0.9000           0
Gbbk4_20        C                   300.0000      0.0000     53.7510     81.0042      1.0000      1.1728      0.9500      1.0000      0.0000      0.5000      0.9000           0
Gbbk4_20        C                   300.0000      0.0000     53.7510     81.0042      1.0000      0.9475      0.9500      1.0000      0.0000      0.5000      0.9000           0
Gbbk4_20        C                   300.0000      0.0000     53.7510     81.0042      1.0000      0.8643      0.9500      1.0000      0.0000      0.5000      0.9000           0
Gbbk4_20        C                   300.0000      0.0000     53.7510     81.0042      1.0000      3.5880      0.9500      1.0000      0.0000      0.0500      0.9000           0
Gbbk4_20        C                   300.0000      0.0000     53.7510     81.0042      1.0000      0.4684      0.9500      1.0000      0.3000      0.5000      0.2000           0
Gbbk4_20        C                   300.0000      0.0000     53.7510     81.0042      1.0000      0.4324      0.9500      1.0000      0.3000      0.5000      0.2000           0
Gbbf2_20        C                   600.0000      0.0000    107.5500    162.0083      1.0000      2.7677      0.9500      1.0000      0.0000      0.0500      0.9000           0
Gbbk4_20        C                   300.0000      0.0000     53.7510     81.0042      1.0000      1.8955      0.9500      1.0000      0.0000      0.0500      0.9000           0
Gbbk4_20        C                   300.0000      0.0000     53.7510     81.0042      1.0000      2.8837      0.9500      1.0000      0.0000      0.0500      0.9000           0
Gbbk4_20        C                   300.0000      0.0000     53.7510     81.0042      1.0000      0.6310      0.9500      1.0000      0.3000      0.5000      0.2000           0
Gbbk4_20        C                   300.0000      0.0000     53.7510     81.0042      1.0000      0.6756      0.9500      1.0000      0.0000      0.5000      0.9000           0
Gbbk4_20        C                   300.0000      0.0000     53.7510     81.0042      1.0000      0.8516      0.9500      1.0000      0.0000      0.5000      0.9000           0
Gbbk4_20        C                   300.0000      0.0000     53.7510     81.0042      1.0000      0.9579      0.9500      1.0000      0.0000      0.5000      0.9000           0
Gbbk4_40        C                   300.0000      0.0000     60.8970    105.6674      1.0000      1.8698      0.9500      1.0000      0.0000      0.0500      0.9000           0
Gbbk4_20        C                   300.0000      0.0000     53.7510     81.0042      1.0000      1.1092      0.9500      1.0000      0.0000      0.5000      0.9000           0
Gbbk4_20        C                   300.0000      0.0000     53.7510     81.0042      1.0000      1.8063      0.9500      1.0000      0.0000      0.5000      0.9000           0
Gbbk4_20        C                   300.0000      0.0000     53.7510     81.0042      1.0000      1.3865      0.9500      1.0000      0.0000      0.5000      0.9000           0
Gbbk4_20        C                   300.0000      0.0000     53.7510     81.0042      1.0000      1.4190      0.9500      1.0000      0.0000      0.5000      0.9000           0
Gbbk4_20        C                   300.0000      0.0000     53.7510     81.0042      1.0000      1.8160      0.9500      1.0000      0.0000      0.5000      0.9000           0
Gbbk4_20        C                   300.0000      0.0000     53.7510     81.0042      1.0000      2.8338      0.9500      1.0000      0.0000      0.0500      0.9000           0
Gbbk4_20        C                   300.0000      0.0000     53.7510     81.0042      1.0000      1.1868      0.9500      1.0000      0.0000      0.5000      0.9000           0
Gbbk4_20        C                   300.0000      0.0000     53.7510     81.0042      1.0000      1.8077      0.9500      1.0000      0.0000      0.5000      0.9000           0
Gbbk4_20        C                   300.0000      0.0000     53.7510     81.0042      1.0000      2.5050      0.9500      1.0000      0.0000      0.0500      0.9000           0
Gbbf2_0         C                   600.0000      0.0000     69.2820     78.9365      1.0000      0.9039      0.9500      1.0000      0.0000      0.5000      0.9000           0
Gbbf2_40        C                   600.0000      0.0000    129.4500    211.3347      1.0000      0.2667      0.9500      1.0000      0.3000      0.5000      0.2000           0
Gbbk4_40        C                   300.0000      0.0000     60.8970    105.6674      1.0000      0.6763      0.9500      1.0000      0.0000      0.5000      0.9000           0
Gbbk4_30        C                   300.0000      0.0000     57.9690     94.3855      1.0000      1.8030      0.9500      1.0000      0.0000      0.5000      0.9000           0
f2uGdb2_20      C                   800.0000      0.0000    107.7420    158.4468      1.0000      0.6667      0.9500      1.0000      0.3000      0.5000      0.2000           0
Gbbk4_0         C                   300.0000      0.0000     36.5730     36.6041      1.0000      2.4214      0.9500      1.0000      0.0000      0.0500      0.9000           0
f2uGdb2_20      C                   800.0000      0.0000    107.7420    158.4468      1.0000      0.7496      0.9500      1.0000      0.0000      0.5000      0.9000           0
Gbbf2_40        C                   600.0000      0.0000    129.4500    211.3347      1.0000      0.2984      0.9500      1.0000      0.3000      0.5000      0.2000           0
Gbbk4_20        C                   300.0000      0.0000     53.7510     81.0042      1.0000      0.2838      0.9500      1.0000      0.3000      0.5000      0.2000           0
Gbbf2_30        C                   600.0000      0.0000    127.0740    188.7709      1.0000      1.8139      0.9500      1.0000      0.0000      0.5000      0.9000           0
Gbbf2_40        C                   600.0000      0.0000    129.4500    211.3347      1.0000      1.0260      0.9500      1.0000      0.0000      0.5000      0.9000           0
f2uGdb2_20      C                   800.0000      0.0000    107.7420    158.4468      1.0000      1.0799      0.9500      1.0000      0.0000      0.5000      0.9000           0
(G)bp_30        C                  1250.0000      0.0000    237.0625    393.2728      1.0000      0.6566      0.9500      1.0000      0.3000      0.5000      0.2000           0
Gbbf2_20        C                   600.0000      0.0000    107.5500    162.0083      1.0000      1.0411      0.9500      1.0000      0.0000      0.5000      0.9000           0
Gbbk4_0         C                   300.0000      0.0000     36.5730     36.6041      1.0000      1.3114      0.9500      1.0000      0.0000      0.5000      0.9000           0
Gbbf2_0         C                   600.0000      0.0000     69.2820     78.9365      1.0000      0.5485      0.9500      1.0000      0.3000      0.5000      0.2000           0
Gbbf2_40        C                   600.0000      0.0000    129.4500    211.3347      1.0000      0.9809      0.9500      1.0000      0.0000      0.5000      0.9000           0
Gbbk4_0         C                   300.0000      0.0000     36.5730     36.6041      1.0000      0.2958      0.9500      1.0000      0.3000      0.5000      0.2000           0
fuAdb2_40       C                  1250.0000      0.0000    197.6150    368.1791      1.0000      0.2191      0.9500      1.0000      0.3000      0.5000      0.2000           0
(G)bp_0         C                  1250.0000      0.0000    135.5500    152.5171      1.0000      0.3532      0.9500      1.0000      0.3000      0.5000      0.2000           0
(G)bp_40        C                  1250.0000      0.0000    254.9125    440.2807      1.0000      0.8800      0.9500      1.0000      0.0000      0.5000      0.9000           0
(G)bp_0         C                  1250.0000      0.0000    135.5500    152.5171      1.0000      0.2298      0.9500      1.0000      0.3000      0.5000      0.2000           0
Gbbf2_30        C                   600.0000      0.0000    127.0740    188.7709      1.0000      0.6469      0.9500      1.0000      0.3000      0.5000      0.2000           0
Gbbk4_30        C                   300.0000      0.0000     57.9690     94.3855      1.0000      4.5276      0.9500      1.0000      0.0000      0.0500      0.9000           0
Gbbf2_40        C                   600.0000      0.0000    129.4500    211.3347      1.0000      0.9981      0.9500      1.0000      0.0000      0.5000      0.9000           0
Gbbf2_40        C                   600.0000      0.0000    129.4500    211.3347      1.0000      1.3440      0.9500      1.0000      0.0000      0.5000      0.9000           0
fuAdb2_30       C                  1250.0000      0.0000    188.8910    347.5060      1.0000      0.5090      0.9500      1.0000      0.3000      0.5000      0.2000           0
Gbbf2_40        C                   600.0000      0.0000    129.4500    211.3347      1.0000      2.0520      0.9500      1.0000      0.0000      0.0500      0.9000           0
Gbbf2_40        C                   600.0000      0.0000    129.4500    211.3347      1.0000      1.0102      0.9500      1.0000      0.0000      0.5000      0.9000           0
(G)bp_0         C                  1250.0000      0.0000    135.5500    152.5171      1.0000      0.1665      0.9500      1.0000      0.9500      0.5000      0.0100           0
(G)bp_0         C                  1250.0000      0.0000    135.5500    152.5171      1.0000      0.2046      0.9500      1.0000      0.3000      0.5000      0.2000           0
Gbbk4_30        C                   300.0000      0.0000     57.9690     94.3855      1.0000      0.5881      0.9500      1.0000      0.3000      0.5000      0.2000           0
Gbbk4_20        C                   300.0000      0.0000     53.7510     81.0042      1.0000      1.0115      0.9500      1.0000      0.0000      0.5000      0.9000           0
fuAdb2_40       C                  1250.0000      0.0000    197.6150    368.1791      1.0000      0.5921      0.9500      1.0000      0.3000      0.5000      0.2000           0
Gbbk4_20        C                   300.0000      0.0000     53.7510     81.0042      1.0000      1.1283      0.9500      1.0000      0.0000      0.5000      0.9000           0
Gbbf2_20        C                   600.0000      0.0000    107.5500    162.0083      1.0000      2.5300      0.9500      1.0000      0.0000      0.0500      0.9000           0
Gbbk4_30        C                   300.0000      0.0000     57.9690     94.3855      1.0000      0.4398      0.9500      1.0000      0.3000      0.5000      0.2000           0
EDp_20          C                  1250.0000      0.0000    174.9875    337.5174      1.0000      0.4166      0.9500      1.0000      0.3000      0.5000      0.2000           0
EDp_20          C                  1250.0000      0.0000    174.9875    337.5174      1.0000      0.3289      0.9500      1.0000      0.3000      0.5000      0.2000           0
EIp_40          C                  1250.0000      0.0000    216.6875    440.2807      1.0000      0.2179      0.9500      1.0000      0.3000      0.5000      0.2000           0
EDp_20          C                  1250.0000      0.0000    174.9875    337.5174      1.0000      0.2429      0.9500      1.0000      0.3000      0.5000      0.2000           0
Gbbf2_20        C                   600.0000      0.0000    107.5500    162.0083      1.0000      0.7201      0.9500      1.0000      0.0000      0.5000      0.9000           0
EIp_40          C                  1250.0000      0.0000    216.6875    440.2807      1.0000      0.6321      0.9500      1.0000      0.3000      0.5000      0.2000           0
EDp_20          C                  1250.0000      0.0000    174.9875    337.5174      1.0000      0.4753      0.9500      1.0000      0.3000      0.5000      0.2000           0
EDp_20          C                  1250.0000      0.0000    174.9875    337.5174      1.0000      0.3572      0.9500      1.0000      0.3000      0.5000      0.2000           0
EIp_40          C                  1250.0000      0.0000    216.6875    440.2807      1.0000      0.4369      0.9500      1.0000      0.3000      0.5000      0.2000           0
EIp_40          C                  1250.0000      0.0000    216.6875    440.2807      1.0000      0.4896      0.9500      1.0000      0.3000      0.5000      0.2000           0
EIp_40          C                  1250.0000      0.0000    216.6875    440.2807      1.0000      0.8214      0.9500      1.0000      0.0000      0.5000      0.9000           0
Gbbk4_20        C                   300.0000      0.0000     53.7510     81.0042      1.0000      0.6184      0.9500      1.0000      0.3000      0.5000      0.2000           0
EIp_40          C                  1250.0000      0.0000    216.6875    440.2807      1.0000      0.5731      0.9500      1.0000      0.3000      0.5000      0.2000           0
Gbbk4_0         C                   300.0000      0.0000     36.5730     36.6041      1.0000      0.9127      0.9500      1.0000      0.0000      0.5000      0.9000           0
Gbbk4_20        C                   300.0000      0.0000     53.7510     81.0042      1.0000      1.3630      0.9500      1.0000      0.0000      0.5000      0.9000           0
Gbbk4_20        C                   300.0000      0.0000     53.7510     81.0042      1.0000      1.4553      0.9500      1.0000      0.0000      0.5000      0.9000           0
Gbbk4_30        C                   300.0000      0.0000     57.9690     94.3855      1.0000      0.3742      0.9500      1.0000      0.3000      0.5000      0.2000           0
Gbbk4_20        C                   300.0000      0.0000     53.7510     81.0042      1.0000      2.5501      0.9500      1.0000      0.0000      0.0500      0.9000           0
Gbbf2_0         C                   600.0000      0.0000     69.2820     78.9365      1.0000      0.3936      0.9500      1.0000      0.3000      0.5000      0.2000           0
EDp_20          C                  1250.0000      0.0000    174.9875    337.5174      1.0000      0.2967      0.9500      1.0000      0.3000      0.5000      0.2000           0
EIp_40          C                  1250.0000      0.0000    216.6875    440.2807      1.0000      0.5656      0.9500      1.0000      0.3000      0.5000      0.2000           0
EIp_40          C                  1250.0000      0.0000    216.6875    440.2807      1.0000      0.3597      0.9500      1.0000      0.3000      0.5000      0.2000           0
Gbbf2_20        C                   600.0000      0.0000    107.5500    162.0083      1.0000      0.4022      0.9500      1.0000      0.3000      0.5000      0.2000           0
Gbbf2_20        C                   600.0000      0.0000    107.5500    162.0083      1.0000      0.9063      0.9500      1.0000      0.0000      0.5000      0.9000           0
Gbbf2_40        C                   600.0000      0.0000    129.4500    211.3347      1.0000      0.7895      0.9500      1.0000      0.0000      0.5000      0.9000           0
Gbbf2_40        C                   600.0000      0.0000    129.4500    211.3347      1.0000      0.5340      0.9500      1.0000      0.3000      0.5000      0.2000           0
Gbbf2_40        C                   600.0000      0.0000    129.4500    211.3347      1.0000      0.5788      0.9500      1.0000      0.3000      0.5000      0.2000           0
AIp_0           C                  1250.0000      0.0000    167.5750    263.6145      1.0000      0.3127      0.9500      1.0000      0.3000      0.5000      0.2000           0
AIp_0           C                  1250.0000      0.0000    167.5750    263.6145      1.0000      1.2494      0.9500      1.0000      0.0000      0.5000      0.9000           0
AIp_0           C                  1250.0000      0.0000    167.5750    263.6145      1.0000      1.4009      0.9500      1.0000      0.0000      0.5000      0.9000           0
AIp_0           C                  1250.0000      0.0000    167.5750    263.6145      1.0000      0.9602      0.9500      1.0000      0.0000      0.5000      0.9000           0
AIp_40          C                  1250.0000      0.0000    270.8750    557.3336      1.0000      0.5424      0.9500      1.0000      0.3000      0.5000      0.2000           0
NC_40           C                   600.0000      0.0000    129.4500    211.3347      1.0000      1.8674      0.9500      1.0000      0.0000      0.0500      0.9000           0
NC_40           C                   600.0000      0.0000    129.4500    211.3347      1.0000      2.7394      0.9500      1.0000      0.0000      0.0500      0.9000           0
fuAdb2_40       C                  1250.0000      0.0000    197.6150    368.1791      1.0000      0.6789      0.9500      1.0000      0.0000      0.5000      0.9000           0
AIp_0           C                  1250.0000      0.0000    167.5750    263.6145      1.0000      1.0211      0.9500      1.0000      0.0000      0.5000      0.9000           0
Gbbf2_20        C                   600.0000      0.0000    107.5500    162.0083      1.0000      2.0651      0.9500      1.0000      0.0000      0.0500      0.9000           0
Gbbf2_20        C                   600.0000      0.0000    107.5500    162.0083      1.0000      2.2407      0.9500      1.0000      0.0000      0.0500      0.9000           0
Gbbf2_20        C                   600.0000      0.0000    107.5500    162.0083      1.0000      1.2764      0.9500      1.0000      0.0000      0.5000      0.9000           0
Gbbf2_20        C                   600.0000      0.0000    107.5500    162.0083      1.0000      3.0128      0.9500      1.0000      0.0000      0.0500      0.9000           0
Gbbf2_40        C                   600.0000      0.0000    129.4500    211.3347      1.0000      1.2404      0.9500      1.0000      0.0000      0.5000      0.9000           0
Gbbf2_40        C                   600.0000      0.0000    129.4500    211.3347      1.0000      1.2653      0.9500      1.0000      0.0000      0.5000      0.9000           0
Gbbf2_40        C                   600.0000      0.0000    129.4500    211.3347      1.0000      1.4372      0.9500      1.0000      0.0000      0.5000      0.9000           0
Gbbf2_40        C                   600.0000      0.0000    129.4500    211.3347      1.0000      0.3425      0.9500      1.0000      0.3000      0.5000      0.2000           0
Gbbf2_40        C                   600.0000      0.0000    129.4500    211.3347      1.0000      1.1576      0.9500      1.0000      0.0000      0.5000      0.9000           0
Gbbf2_40        C                   600.0000      0.0000    129.4500    211.3347      1.0000      0.6632      0.9500      1.0000      0.3000      0.5000      0.2000           0
Gbbf2_40        C                   600.0000      0.0000    129.4500    211.3347      1.0000      1.4034      0.9500      1.0000      0.0000      0.5000      0.9000           0
Gbbf2_40        C                   600.0000      0.0000    129.4500    211.3347      1.0000      0.6077      0.9500      1.0000      0.3000      0.5000      0.2000           0
Gbbf2_40        C                   600.0000      0.0000    129.4500    211.3347      1.0000      1.0909      0.9500      1.0000      0.0000      0.5000      0.9000           0
(G)bp_20        C                  1250.0000      0.0000    205.2625    337.5174      1.0000      5.4230      0.9500      1.0000      0.0000      0.0500      0.9000           0
Gbbf2_40        C                   600.0000      0.0000    129.4500    211.3347      1.0000      1.4763      0.9500      1.0000      0.0000      0.5000      0.9000           0
Gbbf2_40        C                   600.0000      0.0000    129.4500    211.3347      1.0000      1.9196      0.9500      1.0000      0.0000      0.0500      0.9000           0
Gbbf2_40        C                   600.0000      0.0000    129.4500    211.3347      1.0000      1.8592      0.9500      1.0000      0.0000      0.0500      0.9000           0
Gbbf2_40        C                   600.0000      0.0000    129.4500    211.3347      1.0000      1.1464      0.9500      1.0000      0.0000      0.5000      0.9000           0
Gbbf2_40        C                   600.0000      0.0000    129.4500    211.3347      1.0000      0.8188      0.9500      1.0000      0.0000      0.5000      0.9000           0
Gbbf2_40        C                   600.0000      0.0000    129.4500    211.3347      1.0000      1.4519      0.9500      1.0000      0.0000      0.5000      0.9000           0
Gbbf2_40        C                   600.0000      0.0000    129.4500    211.3347      1.0000      1.0104      0.9500      1.0000      0.0000      0.5000      0.9000           0
f2uGdb2_20      C                   800.0000      0.0000    107.7420    158.4468      1.0000      1.6758      0.9500      1.0000      0.0000      0.5000      0.9000           0
(G)bp_0         C                  1250.0000      0.0000    135.5500    152.5171      1.0000      0.6529      0.9500      1.0000      0.3000      0.5000      0.2000           0
Gbbf2_40        C                   600.0000      0.0000    129.4500    211.3347      1.0000      0.8734      0.9500      1.0000      0.0000      0.5000      0.9000           0
f2uGdb2_20      C                   800.0000      0.0000    107.7420    158.4468      1.0000      0.2149      0.9500      1.0000      0.3000      0.5000      0.2000           0
f2uGdb2_20      C                   800.0000      0.0000    107.7420    158.4468      1.0000      0.2364      0.9500      1.0000      0.3000      0.5000      0.2000           0
f2uGdb2_40      C                   800.0000      0.0000    122.2540    191.3310      1.0000      0.2175      0.9500      1.0000      0.3000      0.5000      0.2000           0
f2uGdb2_40      C                   800.0000      0.0000    122.2540    191.3310      1.0000      0.2432      0.9500      1.0000      0.3000      0.5000      0.2000           0
(G)bp_0         C                  1250.0000      0.0000    135.5500    152.5171      1.0000      0.4549      0.9500      1.0000      0.3000      0.5000      0.2000           0
Gbbf2_20        C                   600.0000      0.0000    107.5500    162.0083      1.0000      0.5006      0.9500      1.0000      0.3000      0.5000      0.2000           0
Gbbf2_20        C                   600.0000      0.0000    107.5500    162.0083      1.0000      0.6045      0.9500      1.0000      0.3000      0.5000      0.2000           0
[...]
fuAdb2_40       C                  1250.0000      0.0000    197.6150    368.1791      1.0000      0.9127      0.9500      1.0000      0.0000      0.5000      0.9000           0
uGdbt2_40       C                  1250.0000      0.0000    194.7100    296.8493      1.0000      0.8669      0.9500      1.0000      0.0000      0.5000      0.9000           0
NC_30           C                   600.0000      0.0000    127.0740    188.7709      1.0000      0.7542      0.9500      1.0000      0.0000      0.5000      0.9000           0
NC_0            C                   600.0000      0.0000     69.2820     78.9365      1.0000      0.7261      0.9500      1.0000      0.0000      0.5000      0.9000           0
Gbbf2_20        C                   600.0000      0.0000    107.5500    162.0083      1.0000      0.7102      0.9500      1.0000      0.0000      0.5000      0.9000           0
Gbbf2_40        C                   600.0000      0.0000    129.4500    211.3347      1.0000      3.3715      0.9500      1.0000      0.0000      0.0500      0.9000           0
Gbbf2_20        C                   600.0000      0.0000    107.5500    162.0083      1.0000      6.8350      0.9500      1.0000      0.0000      0.0500      0.9000           0
Gbbf2_40        C                   600.0000      0.0000    129.4500    211.3347      1.0000      0.6926      0.9500      1.0000      0.0000      0.5000      0.9000           0
Gbbf2_20        C                   600.0000      0.0000    107.5500    162.0083      1.0000      0.9671      0.9500      1.0000      0.0000      0.5000      0.9000           0
NC_40           C                   600.0000      0.0000    129.4500    211.3347      1.0000      0.8008      0.9500      1.0000      0.0000      0.5000      0.9000           0
EDp_20          C                  1250.0000      0.0000    174.9875    337.5174      1.0000      1.0533      0.9500      1.0000      0.0000      0.5000      0.9000           0
Gbbf2_20        C                   600.0000      0.0000    107.5500    162.0083      1.0000      1.1418      0.9500      1.0000      0.0000      0.5000      0.9000           0
EIp_40          C                  1250.0000      0.0000    216.6875    440.2807      1.0000      0.4352      0.9500      1.0000      0.3000      0.5000      0.2000           0
f2uGdb2_20      C                   800.0000      0.0000    107.7420    158.4468      1.0000      0.4455      0.9500      1.0000      0.3000      0.5000      0.2000           0
Gbbk4_20        C                   300.0000      0.0000     53.7510     81.0042      1.0000      3.3850      0.9500      1.0000      0.0000      0.0500      0.9000           0
Gbbf2_20        C                   600.0000      0.0000    107.5500    162.0083      1.0000      1.2933      0.9500      1.0000      0.0000      0.5000      0.9000           0
f2uGdb2_20      C                   800.0000      0.0000    107.7420    158.4468      1.0000      0.3876      0.9500      1.0000      0.3000      0.5000      0.2000           0
Gbbf2_20        C                   600.0000      0.0000    107.5500    162.0083      1.0000      6.2681      0.9500      1.0000      0.0000      0.0500      0.9000           0
Gbbk4_40        C                   300.0000      0.0000     60.8970    105.6674      1.0000      2.5647      0.9500      1.0000      0.0000      0.0500      0.9000           0
fuAdb2_40       C                  1250.0000      0.0000    197.6150    368.1791      1.0000      0.4142      0.9500      1.0000      0.3000      0.5000      0.2000           0
Gbbk4_30        C                   300.0000      0.0000     57.9690     94.3855      1.0000      2.3783      0.9500      1.0000      0.0000      0.0500      0.9000           0
Gdbr2_0         C                   600.0000      0.0000     64.9620     76.0723      1.0000      0.1625      0.9500      1.0000      0.9500      0.5000      0.0100           0
NC_30           C                   600.0000      0.0000    127.0740    188.7709      1.0000      2.4712      0.9500      1.0000      0.0000      0.0500      0.9000           0
f2uGdb2_20      C                   800.0000      0.0000    107.7420    158.4468      1.0000      1.2368      0.9500      1.0000      0.0000      0.5000      0.9000           0
Gbbf2_0         C                   600.0000      0.0000     69.2820     78.9365      1.0000      3.8451      0.9500      1.0000      0.0000      0.0500      0.9000           0
Gbbk4_0         C                   300.0000      0.0000     36.5730     36.6041      1.0000      0.7739      0.9500      1.0000      0.0000      0.5000      0.9000           0
Gbbf2_20        C                   600.0000      0.0000    107.5500    162.0083      1.0000      0.5802      0.9500      1.0000      0.3000      0.5000      0.2000           0
fuAdb2_0        C                  1250.0000      0.0000    148.5350    227.1940      1.0000      2.0043      0.9500      1.0000      0.0000      0.0500      0.9000           0
Gbbf2_20        C                   600.0000      0.0000    107.5500    162.0083      1.0000      3.2113      0.9500      1.0000      0.0000      0.0500      0.9000           0
Gbbk4_20        C                   300.0000      0.0000     53.7510     81.0042      1.0000      0.5820      0.9500      1.0000      0.3000      0.5000      0.2000           0
Gbbf2_20        C                   600.0000      0.0000    107.5500    162.0083      1.0000      0.5139      0.9500      1.0000      0.3000      0.5000      0.2000           0
f2uGdb2_20      C                   800.0000      0.0000    107.7420    158.4468      1.0000      0.9658      0.9500      1.0000      0.0000      0.5000      0.9000           0
fuAdb2_0        C                  1250.0000      0.0000    148.5350    227.1940      1.0000      0.1593      0.9500      1.0000      0.9500      0.5000      0.0100           0
fuAdb2_30       C                  1250.0000      0.0000    188.8910    347.5060      1.0000      0.7399      0.9500      1.0000      0.0000      0.5000      0.9000           0
Gdbr2_30        C                   600.0000      0.0000    103.2060    188.7709      1.0000      0.2357      0.9500      1.0000      0.3000      0.5000      0.2000           0
Gbbf2_20        C                   600.0000      0.0000    107.5500    162.0083      1.0000      2.3583      0.9500      1.0000      0.0000      0.0500      0.9000           0
Gbbr2_30        C                   600.0000      0.0000    103.2060    188.7709      1.0000      0.9745      0.9500      1.0000      0.0000      0.5000      0.9000           0
f2uGdb2_30      C                   800.0000      0.0000    116.8900    176.2885      1.0000      0.7084      0.9500      1.0000      0.0000      0.5000      0.9000           0
Gbbf2_20        C                   600.0000      0.0000    107.5500    162.0083      1.0000      1.2601      0.9500      1.0000      0.0000      0.5000      0.9000           0
fuAdb2_30       C                  1250.0000      0.0000    188.8910    347.5060      1.0000      0.7643      0.9500      1.0000      0.0000      0.5000      0.9000           0
NC_30           C                   600.0000      0.0000    127.0740    188.7709      1.0000      0.6617      0.9500      1.0000      0.3000      0.5000      0.2000           0
Gbbf2_0         C                   600.0000      0.0000     69.2820     78.9365      1.0000      0.8792      0.9500      1.0000      0.0000      0.5000      0.9000           0
NC_30           C                   600.0000      0.0000    127.0740    188.7709      1.0000      1.0234      0.9500      1.0000      0.0000      0.5000      0.9000           0
uGdbt2_20       C                  1250.0000      0.0000    172.8100    247.5229      1.0000      0.3838      0.9500      1.0000      0.3000      0.5000      0.2000           0
uGdbt2_20       C                  1250.0000      0.0000    172.8100    247.5229      1.0000      0.7964      0.9500      1.0000      0.0000      0.5000      0.9000           0
f2uGdb2_20      C                   800.0000      0.0000    107.7420    158.4468      1.0000      0.6984      0.9500      1.0000      0.0000      0.5000      0.9000           0
Gbbf2_20        C                   600.0000      0.0000    107.5500    162.0083      1.0000     11.8483      0.9500      1.0000      0.0000      0.0500      0.9000           0
Gbbf2_20        C                   600.0000      0.0000    107.5500    162.0083      1.0000      1.2175      0.9500      1.0000      0.0000      0.5000      0.9000           0
Gdbr2_30        C                   600.0000      0.0000    103.2060    188.7709      1.0000      0.4290      0.9500      1.0000      0.3000      0.5000      0.2000           0
f2uGdb2_20      C                   800.0000      0.0000    107.7420    158.4468      1.0000      0.6925      0.9500      1.0000      0.0000      0.5000      0.9000           0
Gbbf2_40        C                   600.0000      0.0000    129.4500    211.3347      1.0000     10.7743      0.9500      1.0000      0.0000      0.0500      0.9000           0
Gdbr2_0         C                   600.0000      0.0000     64.9620     76.0723      1.0000      0.8766      0.9500      1.0000      0.0000      0.5000      0.9000           0
Gbbf2_20        C                   600.0000      0.0000    107.5500    162.0083      1.0000      1.0475      0.9500      1.0000      0.0000      0.5000      0.9000           0
NC_40           C                   600.0000      0.0000    129.4500    211.3347      1.0000      1.1562      0.9500      1.0000      0.0000      0.5000      0.9000           0
EIp_40          C                  1250.0000      0.0000    216.6875    440.2807      1.0000      0.2841      0.9500      1.0000      0.3000      0.5000      0.2000           0
fuAdb2_40       C                  1250.0000      0.0000    197.6150    368.1791      1.0000      0.3018      0.9500      1.0000      0.3000      0.5000      0.2000           0
Gbbf2_40        C                   600.0000      0.0000    129.4500    211.3347      1.0000      1.5584      0.9500      1.0000      0.0000      0.5000      0.9000           0
Gbbk4_40        C                   300.0000      0.0000     60.8970    105.6674      1.0000      1.3896      0.9500      1.0000      0.0000      0.5000      0.9000           0
Gbbf2_0         C                   600.0000      0.0000     69.2820     78.9365      1.0000      1.9391      0.9500      1.0000      0.0000      0.0500      0.9000           0
Gbbf2_20        C                   600.0000      0.0000    107.5500    162.0083      1.0000      8.0950      0.9500      1.0000      0.0000      0.0500      0.9000           0
Gbbk4_0         C                   300.0000      0.0000     36.5730     36.6041      1.0000      3.0850      0.9500      1.0000      0.0000      0.0500      0.9000           0
Gbbk4_0         C                   300.0000      0.0000     36.5730     36.6041      1.0000      1.2482      0.9500      1.0000      0.0000      0.5000      0.9000           0
f2uGdb2_30      C                   800.0000      0.0000    116.8900    176.2885      1.0000      0.6559      0.9500      1.0000      0.3000      0.5000      0.2000           0
Gbbf2_20        C                   600.0000      0.0000    107.5500    162.0083      1.0000      0.8280      0.9500      1.0000      0.0000      0.5000      0.9000           0
Gbbk4_40        C                   300.0000      0.0000     60.8970    105.6674      1.0000      3.7849      0.9500      1.0000      0.0000      0.0500      0.9000           0
Gdbr2_20        C                   600.0000      0.0000     77.5620    162.0083      1.0000      0.3827      0.9500      1.0000      0.3000      0.5000      0.2000           0
Gbbk4_20        C                   300.0000      0.0000     53.7510     81.0042      1.0000      0.3385      0.9500      1.0000      0.3000      0.5000      0.2000           0
Gbbf2_20        C                   600.0000      0.0000    107.5500    162.0083      1.0000      0.3463      0.9500      1.0000      0.3000      0.5000      0.2000           0
Gbbf2_0         C                   600.0000      0.0000     69.2820     78.9365      1.0000      0.3222      0.9500      1.0000      0.3000      0.5000      0.2000           0
Gbbf2_20        C                   600.0000      0.0000    107.5500    162.0083      1.0000      1.4658      0.9500      1.0000      0.0000      0.5000      0.9000           0
Gbbf2_0         C                   600.0000      0.0000     69.2820     78.9365      1.0000      3.1741      0.9500      1.0000      0.0000      0.0500      0.9000           0
Gbbf2_20        C                   600.0000      0.0000    107.5500    162.0083      1.0000      2.8196      0.9500      1.0000      0.0000      0.0500      0.9000           0
Gbbf2_20        C                   600.0000      0.0000    107.5500    162.0083      1.0000      1.5005      0.9500      1.0000      0.0000      0.5000      0.9000           0
Gbbf2_20        C                   600.0000      0.0000    107.5500    162.0083      1.0000      1.9912      0.9500      1.0000      0.0000      0.0500      0.9000           0
Gbbk4_20        C                   300.0000      0.0000     53.7510     81.0042      1.0000      1.4091      0.9500      1.0000      0.0000      0.5000      0.9000           0
uGdbt2_30       C                  1250.0000      0.0000    192.3340    274.2855      1.0000      1.1090      0.9500      1.0000      0.0000      0.5000      0.9000           0
Gbbk4_20        C                   300.0000      0.0000     53.7510     81.0042      1.0000      0.7811      0.9500      1.0000      0.0000      0.5000      0.9000           0
Gbbk4_20        C                   300.0000      0.0000     53.7510     81.0042      1.0000      0.5985      0.9500      1.0000      0.3000      0.5000      0.2000           0
Gbbf2_0         C                   600.0000      0.0000     69.2820     78.9365      1.0000      7.0597      0.9500      1.0000      0.0000      0.0500      0.9000           0
Gbbf2_20        C                   600.0000      0.0000    107.5500    162.0083      1.0000      5.4815      0.9500      1.0000      0.0000      0.0500      0.9000           0
Gbbf2_20        C                   600.0000      0.0000    107.5500    162.0083      1.0000     10.0138      0.9500      1.0000      0.0000      0.0500      0.9000           0
EDp_0           C                  1250.0000      0.0000    141.4875    164.4510      1.0000      0.5343      0.9500      1.0000      0.3000      0.5000      0.2000           0
f2uGdb2_30      C                   800.0000      0.0000    116.8900    176.2885      1.0000      2.9702      0.9500      1.0000      0.0000      0.0500      0.9000           0
Gbbf2_20        C                   600.0000      0.0000    107.5500    162.0083      1.0000      4.6925      0.9500      1.0000      0.0000      0.0500      0.9000           0
Gbbk4_40        C                   300.0000      0.0000     60.8970    105.6674      1.0000      2.7040      0.9500      1.0000      0.0000      0.0500      0.9000           0
AIp_0           C                  1250.0000      0.0000    167.5750    263.6145      1.0000      0.8129      0.9500      1.0000      0.0000      0.5000      0.9000           0
Gbbf2_20        C                   600.0000      0.0000    107.5500    162.0083      1.0000      8.6342      0.9500      1.0000      0.0000      0.0500      0.9000           0
f2uGdb2_20      C                   800.0000      0.0000    107.7420    158.4468      1.0000      0.2607      0.9500      1.0000      0.3000      0.5000      0.2000           0
f2uGdb2_40      C                   800.0000      0.0000    122.2540    191.3310      1.0000      0.3396      0.9500      1.0000      0.3000      0.5000      0.2000           0
fuAdb2_30       C                  1250.0000      0.0000    188.8910    347.5060      1.0000     10.7014      0.9500      1.0000      0.0000      0.0500      0.9000           0
NC_0            C                   600.0000      0.0000     69.2820     78.9365      1.0000      1.3534      0.9500      1.0000      0.0000      0.5000      0.9000           0
NC_30           C                   600.0000      0.0000    127.0740    188.7709      1.0000      3.2878      0.9500      1.0000      0.0000      0.0500      0.9000           0
Gbbf2_0         C                   600.0000      0.0000     69.2820     78.9365      1.0000      0.5013      0.9500      1.0000      0.3000      0.5000      0.2000           0
EDp_0           C                  1250.0000      0.0000    141.4875    164.4510      1.0000      0.2648      0.9500      1.0000      0.3000      0.5000      0.2000           0
Gbbr2_30        C                   600.0000      0.0000    103.2060    188.7709      1.0000      1.5710      0.9500      1.0000      0.0000      0.5000      0.9000           0
Gbbfi2_0        C                   600.0000      0.0000     68.1960     76.0723      1.0000      0.9043      0.9500      1.0000      0.0000      0.5000      0.9000           0
Gbbf2_0         C                   600.0000      0.0000     69.2820     78.9365      1.0000      2.6297      0.9500      1.0000      0.0000      0.0500      0.9000           0
Gbbf2_0         C                   600.0000      0.0000     69.2820     78.9365      1.0000      2.2709      0.9500      1.0000      0.0000      0.0500      0.9000           0
Gbbk4_30        C                   300.0000      0.0000     57.9690     94.3855      1.0000      0.3583      0.9500      1.0000      0.3000      0.5000      0.2000           0
Gbbk4_30        C                   300.0000      0.0000     57.9690     94.3855      1.0000      1.5619      0.9500      1.0000      0.0000      0.5000      0.9000           0
Gbbf2_20        C                   600.0000      0.0000    107.5500    162.0083      1.0000      1.2669      0.9500      1.0000      0.0000      0.5000      0.9000           0
Gbbf2_40        C                   600.0000      0.0000    129.4500    211.3347      1.0000      3.8614      0.9500      1.0000      0.0000      0.0500      0.9000           0
f2uGdb2_40      C                   800.0000      0.0000    122.2540    191.3310      1.0000      0.2592      0.9500      1.0000      0.3000      0.5000      0.2000           0
f2uGdb2_0       C                   800.0000      0.0000     92.6060    118.0972      1.0000      0.2451      0.9500      1.0000      0.3000      0.5000      0.2000           0
Gbbk4_20        C                   300.0000      0.0000     53.7510     81.0042      1.0000      1.0503      0.9500      1.0000      0.0000      0.5000      0.9000           0
Gbbk4_20        C                   300.0000      0.0000     53.7510     81.0042      1.0000      0.6901      0.9500      1.0000      0.0000      0.5000      0.9000           0
NC_0            C                   600.0000      0.0000     69.2820     78.9365      1.0000      0.1152      0.9500      1.0000      0.9500      0.5000      0.0100           0
NC_0            C                   600.0000      0.0000     69.2820     78.9365      1.0000      0.2352      0.9500      1.0000      0.3000      0.5000      0.2000           0
NC_40           C                   600.0000      0.0000    129.4500    211.3347      1.0000      0.7640      0.9500      1.0000      0.0000      0.5000      0.9000           0
NC_0            C                   600.0000      0.0000     69.2820     78.9365      1.0000      0.3870      0.9500      1.0000      0.3000      0.5000      0.2000           0
Gbbf2_20        C                   600.0000      0.0000    107.5500    162.0083      1.0000      9.0393      0.9500      1.0000      0.0000      0.0500      0.9000           0
Gbbk4_30        C                   300.0000      0.0000     57.9690     94.3855      1.0000      1.7585      0.9500      1.0000      0.0000      0.5000      0.9000           0
