recall.rec: written by SWAT+ editor v2.1.0 on 2023-09-11 10:25 for SWAT+ rev.60.5.4
240
    jday        mo    day_mo        yr            ob_typ           ob_name           flo           sed          orgn          sedp           no3          solp          chla           nh3           no2          cbod           dox          sand          silt          clay           sag           lag        gravel           tmp  
       1         1         1      2002            pt_mon     HautFaysWimbe   13002.00000       0.14562       7.85321       0.00000      93.35436       0.00000       0.00000       0.00000       1.87749       0.00000       0.00000       0.00000       0.00000       0.00000       0.00000       0.00000       0.00000       0.00000  
       1         2         1      2002            pt_mon     HautFaysWimbe   13002.00000       0.14562       7.85321       0.00000      93.35436       0.00000       0.00000       0.00000       1.87749       0.00000       0.00000       0.00000       0.00000       0.00000       0.00000       0.00000       0.00000       0.00000  
       1         3         1      2002            pt_mon     HautFaysWimbe   13002.00000       0.14562       7.85321       0.00000      93.35436       0.00000       0.00000       0.00000       1.87749       0.00000       0.00000       0.00000       0.00000       0.00000       0.00000       0.00000       0.00000       0.00000  
       1         4         1      2002            pt_mon     HautFaysWimbe    4431.60000       0.04033       5.72563       0.00000      31.18074       0.00000       0.00000       0.00000       1.42254       0.00000       0.00000       0.00000       0.00000       0.00000       0.00000       0.00000       0.00000       0.00000  
       1         5         1      2002            pt_mon     HautFaysWimbe    4431.60000       0.04033       5.72563       0.00000      31.18074       0.00000       0.00000       0.00000       1.42254       0.00000       0.00000       0.00000       0.00000       0.00000       0.00000       0.00000       0.00000       0.00000  
       1         6         1      2002            pt_mon     HautFaysWimbe    4431.60000       0.04033       5.72563       0.00000      31.18074       0.00000       0.00000       0.00000       1.42254       0.00000       0.00000       0.00000       0.00000       0.00000       0.00000       0.00000       0.00000       0.00000  
       1         7         1      2002            pt_mon     HautFaysWimbe    4167.60000       0.06001      13.06126       0.00000      38.25857       0.00000       0.00000       0.00000       1.20027       0.00000       0.00000       0.00000       0.00000       0.00000       0.00000       0.00000       0.00000       0.00000  
       1         8         1      2002            pt_mon     HautFaysWimbe    4167.60000       0.06001      13.06126       0.00000      38.25857       0.00000       0.00000       0.00000       1.20027       0.00000       0.00000       0.00000       0.00000       0.00000       0.00000       0.00000       0.00000       0.00000  
       1         9         1      2002            pt_mon     HautFaysWimbe    4167.60000       0.06001      13.06126       0.00000      38.25857       0.00000       0.00000       0.00000       1.20027       0.00000       0.00000       0.00000       0.00000       0.00000       0.00000       0.00000       0.00000       0.00000  
       1        10         1      2002            pt_mon     HautFaysWimbe    9232.80000       0.07460      10.21148       0.00000     117.25656       0.00000       0.00000       0.00000       1.70807       0.00000       0.00000       0.00000       0.00000       0.00000       0.00000       0.00000       0.00000       0.00000  
       1        11         1      2002            pt_mon     HautFaysWimbe    9232.80000       0.07460      10.21148       0.00000     117.25656       0.00000       0.00000       0.00000       1.70807       0.00000       0.00000       0.00000       0.00000       0.00000       0.00000       0.00000       0.00000       0.00000  
       1        12         1      2002            pt_mon     HautFaysWimbe    9232.80000       0.07460      10.21148       0.00000     117.25656       0.00000       0.00000       0.00000       1.70807       0.00000       0.00000       0.00000       0.00000       0.00000       0.00000       0.00000       0.00000       0.00000  
       1         1         1      2003            pt_mon     HautFaysWimbe   13002.00000       0.14562       7.85321       0.00000      93.35436       0.00000       0.00000       0.00000       1.87749       0.00000       0.00000       0.00000       0.00000       0.00000       0.00000       0.00000       0.00000       0.00000  
       1         2         1      2003            pt_mon     HautFaysWimbe   13002.00000       0.14562       7.85321       0.00000      93.35436       0.00000       0.00000       0.00000       1.87749       0.00000       0.00000       0.00000       0.00000       0.00000       0.00000       0.00000       0.00000       0.00000  
       1         3         1      2003            pt_mon     HautFaysWimbe   13002.00000       0.14562       7.85321       0.00000      93.35436       0.00000       0.00000       0.00000       1.87749       0.00000       0.00000       0.00000       0.00000       0.00000       0.00000       0.00000       0.00000       0.00000  
       1         4         1      2003            pt_mon     HautFaysWimbe    4431.60000       0.04033       5.72563       0.00000      31.18074       0.00000       0.00000       0.00000       1.42254       0.00000       0.00000       0.00000       0.00000       0.00000       0.00000       0.00000       0.00000       0.00000  
       1         5         1      2003            pt_mon     HautFaysWimbe    4431.60000       0.04033       5.72563       0.00000      31.18074       0.00000       0.00000       0.00000       1.42254       0.00000       0.00000       0.00000       0.00000       0.00000       0.00000       0.00000       0.00000       0.00000  
       1         6         1      2003            pt_mon     HautFaysWimbe    4431.60000       0.04033       5.72563       0.00000      31.18074       0.00000       0.00000       0.00000       1.42254       0.00000       0.00000       0.00000       0.00000       0.00000       0.00000       0.00000       0.00000       0.00000  
       1         7         1      2003            pt_mon     HautFaysWimbe    4167.60000       0.06001      13.06126       0.00000      38.25857       0.00000       0.00000       0.00000       1.20027       0.00000       0.00000       0.00000       0.00000       0.00000       0.00000       0.00000       0.00000       0.00000  
       1         8         1      2003            pt_mon     HautFaysWimbe    4167.60000       0.06001      13.06126       0.00000      38.25857       0.00000       0.00000       0.00000       1.20027       0.00000       0.00000       0.00000       0.00000       0.00000       0.00000       0.00000       0.00000       0.00000  
       1         9         1      2003            pt_mon     HautFaysWimbe    4167.60000       0.06001      13.06126       0.00000      38.25857       0.00000       0.00000       0.00000       1.20027       0.00000       0.00000       0.00000       0.00000       0.00000       0.00000       0.00000       0.00000       0.00000  
       1        10         1      2003            pt_mon     HautFaysWimbe    9232.80000       0.07460      10.21148       0.00000     117.25656       0.00000       0.00000       0.00000       1.70807       0.00000       0.00000       0.00000       0.00000       0.00000       0.00000       0.00000       0.00000       0.00000  
       1        11         1      2003            pt_mon     HautFaysWimbe    9232.80000       0.07460      10.21148       0.00000     117.25656       0.00000       0.00000       0.00000       1.70807       0.00000       0.00000       0.00000       0.00000       0.00000       0.00000       0.00000       0.00000       0.00000  
       1        12         1      2003            pt_mon     HautFaysWimbe    9232.80000       0.07460      10.21148       0.00000     117.25656       0.00000       0.00000       0.00000       1.70807       0.00000       0.00000       0.00000       0.00000       0.00000       0.00000       0.00000       0.00000       0.00000  
       1         1         1      2004            pt_mon     HautFaysWimbe   13002.00000       0.14562       7.85321       0.00000      93.35436       0.00000       0.00000       0.00000       1.87749       0.00000       0.00000       0.00000       0.00000       0.00000       0.00000       0.00000       0.00000       0.00000  
       1         2         1      2004            pt_mon     HautFaysWimbe   13002.00000       0.14562       7.85321       0.00000      93.35436       0.00000       0.00000       0.00000       1.87749       0.00000       0.00000       0.00000       0.00000       0.00000       0.00000       0.00000       0.00000       0.00000  
       1         3         1      2004            pt_mon     HautFaysWimbe   13002.00000       0.14562       7.85321       0.00000      93.35436       0.00000       0.00000       0.00000       1.87749       0.00000       0.00000       0.00000       0.00000       0.00000       0.00000       0.00000       0.00000       0.00000  
       1         4         1      2004            pt_mon     HautFaysWimbe    4431.60000       0.04033       5.72563       0.00000      31.18074       0.00000       0.00000       0.00000       1.42254       0.00000       0.00000       0.00000       0.00000       0.00000       0.00000       0.00000       0.00000       0.00000  
       1         5         1      2004            pt_mon     HautFaysWimbe    4431.60000       0.04033       5.72563       0.00000      31.18074       0.00000       0.00000       0.00000       1.42254       0.00000       0.00000       0.00000       0.00000       0.00000       0.00000       0.00000       0.00000       0.00000  
       1         6         1      2004            pt_mon     HautFaysWimbe    4431.60000       0.04033       5.72563       0.00000      31.18074       0.00000       0.00000       0.00000       1.42254       0.00000       0.00000       0.00000       0.00000       0.00000       0.00000       0.00000       0.00000       0.00000  
       1         7         1      2004            pt_mon     HautFaysWimbe    4167.60000       0.06001      13.06126       0.00000      38.25857       0.00000       0.00000       0.00000       1.20027       0.00000       0.00000       0.00000       0.00000       0.00000       0.00000       0.00000       0.00000       0.00000  
       1         8         1      2004            pt_mon     HautFaysWimbe    4167.60000       0.06001      13.06126       0.00000      38.25857       0.00000       0.00000       0.00000       1.20027       0.00000       0.00000       0.00000       0.00000       0.00000       0.00000       0.00000       0.00000       0.00000  
       1         9         1      2004            pt_mon     HautFaysWimbe    4167.60000       0.06001      13.06126       0.00000      38.25857       0.00000       0.00000       0.00000       1.20027       0.00000       0.00000       0.00000       0.00000       0.00000       0.00000       0.00000       0.00000       0.00000  
       1        10         1      2004            pt_mon     HautFaysWimbe    9232.80000       0.07460      10.21148       0.00000     117.25656       0.00000       0.00000       0.00000       1.70807       0.00000       0.00000       0.00000       0.00000       0.00000       0.00000       0.00000       0.00000       0.00000  
       1        11         1      2004            pt_mon     HautFaysWimbe    9232.80000       0.07460      10.21148       0.00000     117.25656       0.00000       0.00000       0.00000       1.70807       0.00000       0.00000       0.00000       0.00000       0.00000       0.00000       0.00000       0.00000       0.00000  
       1        12         1      2004            pt_mon     HautFaysWimbe    9232.80000       0.07460      10.21148       0.00000     117.25656       0.00000       0.00000       0.00000       1.70807       0.00000       0.00000       0.00000       0.00000       0.00000       0.00000       0.00000       0.00000       0.00000  
       1         1         1      2005            pt_mon     HautFaysWimbe   13002.00000       0.14562       7.85321       0.00000      93.35436       0.00000       0.00000       0.00000       1.87749       0.00000       0.00000       0.00000       0.00000       0.00000       0.00000       0.00000       0.00000       0.00000  
       1         2         1      2005            pt_mon     HautFaysWimbe   13002.00000       0.14562       7.85321       0.00000      93.35436       0.00000       0.00000       0.00000       1.87749       0.00000       0.00000       0.00000       0.00000       0.00000       0.00000       0.00000       0.00000       0.00000  
       1         3         1      2005            pt_mon     HautFaysWimbe   13002.00000       0.14562       7.85321       0.00000      93.35436       0.00000       0.00000       0.00000       1.87749       0.00000       0.00000       0.00000       0.00000       0.00000       0.00000       0.00000       0.00000       0.00000  
       1         4         1      2005            pt_mon     HautFaysWimbe    4431.60000       0.04033       5.72563       0.00000      31.18074       0.00000       0.00000       0.00000       1.42254       0.00000       0.00000       0.00000       0.00000       0.00000       0.00000       0.00000       0.00000       0.00000  
       1         5         1      2005            pt_mon     HautFaysWimbe    4431.60000       0.04033       5.72563       0.00000      31.18074       0.00000       0.00000       0.00000       1.42254       0.00000       0.00000       0.00000       0.00000       0.00000       0.00000       0.00000       0.00000       0.00000  
       1         6         1      2005            pt_mon     HautFaysWimbe    4431.60000       0.04033       5.72563       0.00000      31.18074       0.00000       0.00000       0.00000       1.42254       0.00000       0.00000       0.00000       0.00000       0.00000       0.00000       0.00000       0.00000       0.00000  
       1         7         1      2005            pt_mon     HautFaysWimbe    4167.60000       0.06001      13.06126       0.00000      38.25857       0.00000       0.00000       0.00000       1.20027       0.00000       0.00000       0.00000       0.00000       0.00000       0.00000       0.00000       0.00000       0.00000  
       1         8         1      2005            pt_mon     HautFaysWimbe    4167.60000       0.06001      13.06126       0.00000      38.25857       0.00000       0.00000       0.00000       1.20027       0.00000       0.00000       0.00000       0.00000       0.00000       0.00000       0.00000       0.00000       0.00000  
       1         9         1      2005            pt_mon     HautFaysWimbe    4167.60000       0.06001      13.06126       0.00000      38.25857       0.00000       0.00000       0.00000       1.20027       0.00000       0.00000       0.00000       0.00000       0.00000       0.00000       0.00000       0.00000       0.00000  
       1        10         1      2005            pt_mon     HautFaysWimbe    9232.80000       0.07460      10.21148       0.00000     117.25656       0.00000       0.00000       0.00000       1.70807       0.00000       0.00000       0.00000       0.00000       0.00000       0.00000       0.00000       0.00000       0.00000  
       1        11         1      2005            pt_mon     HautFaysWimbe    9232.80000       0.07460      10.21148       0.00000     117.25656       0.00000       0.00000       0.00000       1.70807       0.00000       0.00000       0.00000       0.00000       0.00000       0.00000       0.00000       0.00000       0.00000  
       1        12         1      2005            pt_mon     HautFaysWimbe    9232.80000       0.07460      10.21148       0.00000     117.25656       0.00000       0.00000       0.00000       1.70807       0.00000       0.00000       0.00000       0.00000       0.00000       0.00000       0.00000       0.00000       0.00000  
       1         1         1      2006            pt_mon     HautFaysWimbe   13002.00000       0.14562       7.85321       0.00000      93.35436       0.00000       0.00000       0.00000       1.87749       0.00000       0.00000       0.00000       0.00000       0.00000       0.00000       0.00000       0.00000       0.00000  
       1         2         1      2006            pt_mon     HautFaysWimbe   13002.00000       0.14562       7.85321       0.00000      93.35436       0.00000       0.00000       0.00000       1.87749       0.00000       0.00000       0.00000       0.00000       0.00000       0.00000       0.00000       0.00000       0.00000  
       1         3         1      2006            pt_mon     HautFaysWimbe   13002.00000       0.14562       7.85321       0.00000      93.35436       0.00000       0.00000       0.00000       1.87749       0.00000       0.00000       0.00000       0.00000       0.00000       0.00000       0.00000       0.00000       0.00000  
       1         4         1      2006            pt_mon     HautFaysWimbe    4431.60000       0.04033       5.72563       0.00000      31.18074       0.00000       0.00000       0.00000       1.42254       0.00000       0.00000       0.00000       0.00000       0.00000       0.00000       0.00000       0.00000       0.00000  
       1         5         1      2006            pt_mon     HautFaysWimbe    4431.60000       0.04033       5.72563       0.00000      31.18074       0.00000       0.00000       0.00000       1.42254       0.00000       0.00000       0.00000       0.00000       0.00000       0.00000       0.00000       0.00000       0.00000  
       1         6         1      2006            pt_mon     HautFaysWimbe    4431.60000       0.04033       5.72563       0.00000      31.18074       0.00000       0.00000       0.00000       1.42254       0.00000       0.00000       0.00000       0.00000       0.00000       0.00000       0.00000       0.00000       0.00000  
       1         7         1      2006            pt_mon     HautFaysWimbe    4167.60000       0.06001      13.06126       0.00000      38.25857       0.00000       0.00000       0.00000       1.20027       0.00000       0.00000       0.00000       0.00000       0.00000       0.00000       0.00000       0.00000       0.00000  
       1         8         1      2006            pt_mon     HautFaysWimbe    4167.60000       0.06001      13.06126       0.00000      38.25857       0.00000       0.00000       0.00000       1.20027       0.00000       0.00000       0.00000       0.00000       0.00000       0.00000       0.00000       0.00000       0.00000  
       1         9         1      2006            pt_mon     HautFaysWimbe    4167.60000       0.06001      13.06126       0.00000      38.25857       0.00000       0.00000       0.00000       1.20027       0.00000       0.00000       0.00000       0.00000       0.00000       0.00000       0.00000       0.00000       0.00000  
       1        10         1      2006            pt_mon     HautFaysWimbe    9232.80000       0.07460      10.21148       0.00000     117.25656       0.00000       0.00000       0.00000       1.70807       0.00000       0.00000       0.00000       0.00000       0.00000       0.00000       0.00000       0.00000       0.00000  
       1        11         1      2006            pt_mon     HautFaysWimbe    9232.80000       0.07460      10.21148       0.00000     117.25656       0.00000       0.00000       0.00000       1.70807       0.00000       0.00000       0.00000       0.00000       0.00000       0.00000       0.00000       0.00000       0.00000  
       1        12         1      2006            pt_mon     HautFaysWimbe    9232.80000       0.07460      10.21148       0.00000     117.25656       0.00000       0.00000       0.00000       1.70807       0.00000       0.00000       0.00000       0.00000       0.00000       0.00000       0.00000       0.00000       0.00000  
       1         1         1      2007            pt_mon     HautFaysWimbe   13002.00000       0.14562       7.85321       0.00000      93.35436       0.00000       0.00000       0.00000       1.87749       0.00000       0.00000       0.00000       0.00000       0.00000       0.00000       0.00000       0.00000       0.00000  
       1         2         1      2007            pt_mon     HautFaysWimbe   13002.00000       0.14562       7.85321       0.00000      93.35436       0.00000       0.00000       0.00000       1.87749       0.00000       0.00000       0.00000       0.00000       0.00000       0.00000       0.00000       0.00000       0.00000  
       1         3         1      2007            pt_mon     HautFaysWimbe   13002.00000       0.14562       7.85321       0.00000      93.35436       0.00000       0.00000       0.00000       1.87749       0.00000       0.00000       0.00000       0.00000       0.00000       0.00000       0.00000       0.00000       0.00000  
       1         4         1      2007            pt_mon     HautFaysWimbe    4431.60000       0.04033       5.72563       0.00000      31.18074       0.00000       0.00000       0.00000       1.42254       0.00000       0.00000       0.00000       0.00000       0.00000       0.00000       0.00000       0.00000       0.00000  
       1         5         1      2007            pt_mon     HautFaysWimbe    4431.60000       0.04033       5.72563       0.00000      31.18074       0.00000       0.00000       0.00000       1.42254       0.00000       0.00000       0.00000       0.00000       0.00000       0.00000       0.00000       0.00000       0.00000  
       1         6         1      2007            pt_mon     HautFaysWimbe    4431.60000       0.04033       5.72563       0.00000      31.18074       0.00000       0.00000       0.00000       1.42254       0.00000       0.00000       0.00000       0.00000       0.00000       0.00000       0.00000       0.00000       0.00000  
       1         7         1      2007            pt_mon     HautFaysWimbe    4167.60000       0.06001      13.06126       0.00000      38.25857       0.00000       0.00000       0.00000       1.20027       0.00000       0.00000       0.00000       0.00000       0.00000       0.00000       0.00000       0.00000       0.00000  
       1         8         1      2007            pt_mon     HautFaysWimbe    4167.60000       0.06001      13.06126       0.00000      38.25857       0.00000       0.00000       0.00000       1.20027       0.00000       0.00000       0.00000       0.00000       0.00000       0.00000       0.00000       0.00000       0.00000  
       1         9         1      2007            pt_mon     HautFaysWimbe    4167.60000       0.06001      13.06126       0.00000      38.25857       0.00000       0.00000       0.00000       1.20027       0.00000       0.00000       0.00000       0.00000       0.00000       0.00000       0.00000       0.00000       0.00000  
       1        10         1      2007            pt_mon     HautFaysWimbe    9232.80000       0.07460      10.21148       0.00000     117.25656       0.00000       0.00000       0.00000       1.70807       0.00000       0.00000       0.00000       0.00000       0.00000       0.00000       0.00000       0.00000       0.00000  
       1        11         1      2007            pt_mon     HautFaysWimbe    9232.80000       0.07460      10.21148       0.00000     117.25656       0.00000       0.00000       0.00000       1.70807       0.00000       0.00000       0.00000       0.00000       0.00000       0.00000       0.00000       0.00000       0.00000  
       1        12         1      2007            pt_mon     HautFaysWimbe    9232.80000       0.07460      10.21148       0.00000     117.25656       0.00000       0.00000       0.00000       1.70807       0.00000       0.00000       0.00000       0.00000       0.00000       0.00000       0.00000       0.00000       0.00000  
       1         1         1      2008            pt_mon     HautFaysWimbe   13002.00000       0.14562       7.85321       0.00000      93.35436       0.00000       0.00000       0.00000       1.87749       0.00000       0.00000       0.00000       0.00000       0.00000       0.00000       0.00000       0.00000       0.00000  
       1         2         1      2008            pt_mon     HautFaysWimbe   13002.00000       0.14562       7.85321       0.00000      93.35436       0.00000       0.00000       0.00000       1.87749       0.00000       0.00000       0.00000       0.00000       0.00000       0.00000       0.00000       0.00000       0.00000  
       1         3         1      2008            pt_mon     HautFaysWimbe   13002.00000       0.14562       7.85321       0.00000      93.35436       0.00000       0.00000       0.00000       1.87749       0.00000       0.00000       0.00000       0.00000       0.00000       0.00000       0.00000       0.00000       0.00000  
       1         4         1      2008            pt_mon     HautFaysWimbe    4431.60000       0.04033       5.72563       0.00000      31.18074       0.00000       0.00000       0.00000       1.42254       0.00000       0.00000       0.00000       0.00000       0.00000       0.00000       0.00000       0.00000       0.00000  
       1         5         1      2008            pt_mon     HautFaysWimbe    4431.60000       0.04033       5.72563       0.00000      31.18074       0.00000       0.00000       0.00000       1.42254       0.00000       0.00000       0.00000       0.00000       0.00000       0.00000       0.00000       0.00000       0.00000  
       1         6         1      2008            pt_mon     HautFaysWimbe    4431.60000       0.04033       5.72563       0.00000      31.18074       0.00000       0.00000       0.00000       1.42254       0.00000       0.00000       0.00000       0.00000       0.00000       0.00000       0.00000       0.00000       0.00000  
       1         7         1      2008            pt_mon     HautFaysWimbe    4167.60000       0.06001      13.06126       0.00000      38.25857       0.00000       0.00000       0.00000       1.20027       0.00000       0.00000       0.00000       0.00000       0.00000       0.00000       0.00000       0.00000       0.00000  
       1         8         1      2008            pt_mon     HautFaysWimbe    4167.60000       0.06001      13.06126       0.00000      38.25857       0.00000       0.00000       0.00000       1.20027       0.00000       0.00000       0.00000       0.00000       0.00000       0.00000       0.00000       0.00000       0.00000  
       1         9         1      2008            pt_mon     HautFaysWimbe    4167.60000       0.06001      13.06126       0.00000      38.25857       0.00000       0.00000       0.00000       1.20027       0.00000       0.00000       0.00000       0.00000       0.00000       0.00000       0.00000       0.00000       0.00000  
       1        10         1      2008            pt_mon     HautFaysWimbe    9232.80000       0.07460      10.21148       0.00000     117.25656       0.00000       0.00000       0.00000       1.70807       0.00000       0.00000       0.00000       0.00000       0.00000       0.00000       0.00000       0.00000       0.00000  
       1        11         1      2008            pt_mon     HautFaysWimbe    9232.80000       0.07460      10.21148       0.00000     117.25656       0.00000       0.00000       0.00000       1.70807       0.00000       0.00000       0.00000       0.00000       0.00000       0.00000       0.00000       0.00000       0.00000  
       1        12         1      2008            pt_mon     HautFaysWimbe    9232.80000       0.07460      10.21148       0.00000     117.25656       0.00000       0.00000       0.00000       1.70807       0.00000       0.00000       0.00000       0.00000       0.00000       0.00000       0.00000       0.00000       0.00000  
       1         1         1      2009            pt_mon     HautFaysWimbe   13002.00000       0.14562       7.85321       0.00000      93.35436       0.00000       0.00000       0.00000       1.87749       0.00000       0.00000       0.00000       0.00000       0.00000       0.00000       0.00000       0.00000       0.00000  
       1         2         1      2009            pt_mon     HautFaysWimbe   13002.00000       0.14562       7.85321       0.00000      93.35436       0.00000       0.00000       0.00000       1.87749       0.00000       0.00000       0.00000       0.00000       0.00000       0.00000       0.00000       0.00000       0.00000  
       1         3         1      2009            pt_mon     HautFaysWimbe   13002.00000       0.14562       7.85321       0.00000      93.35436       0.00000       0.00000       0.00000       1.87749       0.00000       0.00000       0.00000       0.00000       0.00000       0.00000       0.00000       0.00000       0.00000  
       1         4         1      2009            pt_mon     HautFaysWimbe    4431.60000       0.04033       5.72563       0.00000      31.18074       0.00000       0.00000       0.00000       1.42254       0.00000       0.00000       0.00000       0.00000       0.00000       0.00000       0.00000       0.00000       0.00000  
       1         5         1      2009            pt_mon     HautFaysWimbe    4431.60000       0.04033       5.72563       0.00000      31.18074       0.00000       0.00000       0.00000       1.42254       0.00000       0.00000       0.00000       0.00000       0.00000       0.00000       0.00000       0.00000       0.00000  
       1         6         1      2009            pt_mon     HautFaysWimbe    4431.60000       0.04033       5.72563       0.00000      31.18074       0.00000       0.00000       0.00000       1.42254       0.00000       0.00000       0.00000       0.00000       0.00000       0.00000       0.00000       0.00000       0.00000  
       1         7         1      2009            pt_mon     HautFaysWimbe    4167.60000       0.06001      13.06126       0.00000      38.25857       0.00000       0.00000       0.00000       1.20027       0.00000       0.00000       0.00000       0.00000       0.00000       0.00000       0.00000       0.00000       0.00000  
       1         8         1      2009            pt_mon     HautFaysWimbe    4167.60000       0.06001      13.06126       0.00000      38.25857       0.00000       0.00000       0.00000       1.20027       0.00000       0.00000       0.00000       0.00000       0.00000       0.00000       0.00000       0.00000       0.00000  
       1         9         1      2009            pt_mon     HautFaysWimbe    4167.60000       0.06001      13.06126       0.00000      38.25857       0.00000       0.00000       0.00000       1.20027       0.00000       0.00000       0.00000       0.00000       0.00000       0.00000       0.00000       0.00000       0.00000  
       1        10         1      2009            pt_mon     HautFaysWimbe    9232.80000       0.07460      10.21148       0.00000     117.25656       0.00000       0.00000       0.00000       1.70807       0.00000       0.00000       0.00000       0.00000       0.00000       0.00000       0.00000       0.00000       0.00000  
       1        11         1      2009            pt_mon     HautFaysWimbe    9232.80000       0.07460      10.21148       0.00000     117.25656       0.00000       0.00000       0.00000       1.70807       0.00000       0.00000       0.00000       0.00000       0.00000       0.00000       0.00000       0.00000       0.00000  
       1        12         1      2009            pt_mon     HautFaysWimbe    9232.80000       0.07460      10.21148       0.00000     117.25656       0.00000       0.00000       0.00000       1.70807       0.00000       0.00000       0.00000       0.00000       0.00000       0.00000       0.00000       0.00000       0.00000  
       1         1         1      2010            pt_mon     HautFaysWimbe   13002.00000       0.14562       7.85321       0.00000      93.35436       0.00000       0.00000       0.00000       1.87749       0.00000       0.00000       0.00000       0.00000       0.00000       0.00000       0.00000       0.00000       0.00000  
       1         2         1      2010            pt_mon     HautFaysWimbe   13002.00000       0.14562       7.85321       0.00000      93.35436       0.00000       0.00000       0.00000       1.87749       0.00000       0.00000       0.00000       0.00000       0.00000       0.00000       0.00000       0.00000       0.00000  
       1         3         1      2010            pt_mon     HautFaysWimbe   13002.00000       0.14562       7.85321       0.00000      93.35436       0.00000       0.00000       0.00000       1.87749       0.00000       0.00000       0.00000       0.00000       0.00000       0.00000       0.00000       0.00000       0.00000  
       1         4         1      2010            pt_mon     HautFaysWimbe    4431.60000       0.04033       5.72563       0.00000      31.18074       0.00000       0.00000       0.00000       1.42254       0.00000       0.00000       0.00000       0.00000       0.00000       0.00000       0.00000       0.00000       0.00000  
       1         5         1      2010            pt_mon     HautFaysWimbe    4431.60000       0.04033       5.72563       0.00000      31.18074       0.00000       0.00000       0.00000       1.42254       0.00000       0.00000       0.00000       0.00000       0.00000       0.00000       0.00000       0.00000       0.00000  
       1         6         1      2010            pt_mon     HautFaysWimbe    4431.60000       0.04033       5.72563       0.00000      31.18074       0.00000       0.00000       0.00000       1.42254       0.00000       0.00000       0.00000       0.00000       0.00000       0.00000       0.00000       0.00000       0.00000  
       1         7         1      2010            pt_mon     HautFaysWimbe    4167.60000       0.06001      13.06126       0.00000      38.25857       0.00000       0.00000       0.00000       1.20027       0.00000       0.00000       0.00000       0.00000       0.00000       0.00000       0.00000       0.00000       0.00000  
       1         8         1      2010            pt_mon     HautFaysWimbe    4167.60000       0.06001      13.06126       0.00000      38.25857       0.00000       0.00000       0.00000       1.20027       0.00000       0.00000       0.00000       0.00000       0.00000       0.00000       0.00000       0.00000       0.00000  
       1         9         1      2010            pt_mon     HautFaysWimbe    4167.60000       0.06001      13.06126       0.00000      38.25857       0.00000       0.00000       0.00000       1.20027       0.00000       0.00000       0.00000       0.00000       0.00000       0.00000       0.00000       0.00000       0.00000  
       1        10         1      2010            pt_mon     HautFaysWimbe    9232.80000       0.07460      10.21148       0.00000     117.25656       0.00000       0.00000       0.00000       1.70807       0.00000       0.00000       0.00000       0.00000       0.00000       0.00000       0.00000       0.00000       0.00000  
       1        11         1      2010            pt_mon     HautFaysWimbe    9232.80000       0.07460      10.21148       0.00000     117.25656       0.00000       0.00000       0.00000       1.70807       0.00000       0.00000       0.00000       0.00000       0.00000       0.00000       0.00000       0.00000       0.00000  
       1        12         1      2010            pt_mon     HautFaysWimbe    9232.80000       0.07460      10.21148       0.00000     117.25656       0.00000       0.00000       0.00000       1.70807       0.00000       0.00000       0.00000       0.00000       0.00000       0.00000       0.00000       0.00000       0.00000  
       1         1         1      2011            pt_mon     HautFaysWimbe   13002.00000       0.14562       7.85321       0.00000      93.35436       0.00000       0.00000       0.00000       1.87749       0.00000       0.00000       0.00000       0.00000       0.00000       0.00000       0.00000       0.00000       0.00000  
       1         2         1      2011            pt_mon     HautFaysWimbe   13002.00000       0.14562       7.85321       0.00000      93.35436       0.00000       0.00000       0.00000       1.87749       0.00000       0.00000       0.00000       0.00000       0.00000       0.00000       0.00000       0.00000       0.00000  
       1         3         1      2011            pt_mon     HautFaysWimbe   13002.00000       0.14562       7.85321       0.00000      93.35436       0.00000       0.00000       0.00000       1.87749       0.00000       0.00000       0.00000       0.00000       0.00000       0.00000       0.00000       0.00000       0.00000  
       1         4         1      2011            pt_mon     HautFaysWimbe    4431.60000       0.04033       5.72563       0.00000      31.18074       0.00000       0.00000       0.00000       1.42254       0.00000       0.00000       0.00000       0.00000       0.00000       0.00000       0.00000       0.00000       0.00000  
       1         5         1      2011            pt_mon     HautFaysWimbe    4431.60000       0.04033       5.72563       0.00000      31.18074       0.00000       0.00000       0.00000       1.42254       0.00000       0.00000       0.00000       0.00000       0.00000       0.00000       0.00000       0.00000       0.00000  
       1         6         1      2011            pt_mon     HautFaysWimbe    4431.60000       0.04033       5.72563       0.00000      31.18074       0.00000       0.00000       0.00000       1.42254       0.00000       0.00000       0.00000       0.00000       0.00000       0.00000       0.00000       0.00000       0.00000  
       1         7         1      2011            pt_mon     HautFaysWimbe    4167.60000       0.06001      13.06126       0.00000      38.25857       0.00000       0.00000       0.00000       1.20027       0.00000       0.00000       0.00000       0.00000       0.00000       0.00000       0.00000       0.00000       0.00000  
       1         8         1      2011            pt_mon     HautFaysWimbe    4167.60000       0.06001      13.06126       0.00000      38.25857       0.00000       0.00000       0.00000       1.20027       0.00000       0.00000       0.00000       0.00000       0.00000       0.00000       0.00000       0.00000       0.00000  
       1         9         1      2011            pt_mon     HautFaysWimbe    4167.60000       0.06001      13.06126       0.00000      38.25857       0.00000       0.00000       0.00000       1.20027       0.00000       0.00000       0.00000       0.00000       0.00000       0.00000       0.00000       0.00000       0.00000  
       1        10         1      2011            pt_mon     HautFaysWimbe    9232.80000       0.07460      10.21148       0.00000     117.25656       0.00000       0.00000       0.00000       1.70807       0.00000       0.00000       0.00000       0.00000       0.00000       0.00000       0.00000       0.00000       0.00000  
       1        11         1      2011            pt_mon     HautFaysWimbe    9232.80000       0.07460      10.21148       0.00000     117.25656       0.00000       0.00000       0.00000       1.70807       0.00000       0.00000       0.00000       0.00000       0.00000       0.00000       0.00000       0.00000       0.00000  
       1        12         1      2011            pt_mon     HautFaysWimbe    9232.80000       0.07460      10.21148       0.00000     117.25656       0.00000       0.00000       0.00000       1.70807       0.00000       0.00000       0.00000       0.00000       0.00000       0.00000       0.00000       0.00000       0.00000  
       1         1         1      2012            pt_mon     HautFaysWimbe   13002.00000       0.14562       7.85321       0.00000      93.35436       0.00000       0.00000       0.00000       1.87749       0.00000       0.00000       0.00000       0.00000       0.00000       0.00000       0.00000       0.00000       0.00000  
       1         2         1      2012            pt_mon     HautFaysWimbe   13002.00000       0.14562       7.85321       0.00000      93.35436       0.00000       0.00000       0.00000       1.87749       0.00000       0.00000       0.00000       0.00000       0.00000       0.00000       0.00000       0.00000       0.00000  
       1         3         1      2012            pt_mon     HautFaysWimbe   13002.00000       0.14562       7.85321       0.00000      93.35436       0.00000       0.00000       0.00000       1.87749       0.00000       0.00000       0.00000       0.00000       0.00000       0.00000       0.00000       0.00000       0.00000  
       1         4         1      2012            pt_mon     HautFaysWimbe    4431.60000       0.04033       5.72563       0.00000      31.18074       0.00000       0.00000       0.00000       1.42254       0.00000       0.00000       0.00000       0.00000       0.00000       0.00000       0.00000       0.00000       0.00000  
       1         5         1      2012            pt_mon     HautFaysWimbe    4431.60000       0.04033       5.72563       0.00000      31.18074       0.00000       0.00000       0.00000       1.42254       0.00000       0.00000       0.00000       0.00000       0.00000       0.00000       0.00000       0.00000       0.00000  
       1         6         1      2012            pt_mon     HautFaysWimbe    4431.60000       0.04033       5.72563       0.00000      31.18074       0.00000       0.00000       0.00000       1.42254       0.00000       0.00000       0.00000       0.00000       0.00000       0.00000       0.00000       0.00000       0.00000  
       1         7         1      2012            pt_mon     HautFaysWimbe    4167.60000       0.06001      13.06126       0.00000      38.25857       0.00000       0.00000       0.00000       1.20027       0.00000       0.00000       0.00000       0.00000       0.00000       0.00000       0.00000       0.00000       0.00000  
       1         8         1      2012            pt_mon     HautFaysWimbe    4167.60000       0.06001      13.06126       0.00000      38.25857       0.00000       0.00000       0.00000       1.20027       0.00000       0.00000       0.00000       0.00000       0.00000       0.00000       0.00000       0.00000       0.00000  
       1         9         1      2012            pt_mon     HautFaysWimbe    4167.60000       0.06001      13.06126       0.00000      38.25857       0.00000       0.00000       0.00000       1.20027       0.00000       0.00000       0.00000       0.00000       0.00000       0.00000       0.00000       0.00000       0.00000  
       1        10         1      2012            pt_mon     HautFaysWimbe    9232.80000       0.07460      10.21148       0.00000     117.25656       0.00000       0.00000       0.00000       1.70807       0.00000       0.00000       0.00000       0.00000       0.00000       0.00000       0.00000       0.00000       0.00000  
       1        11         1      2012            pt_mon     HautFaysWimbe    9232.80000       0.07460      10.21148       0.00000     117.25656       0.00000       0.00000       0.00000       1.70807       0.00000       0.00000       0.00000       0.00000       0.00000       0.00000       0.00000       0.00000       0.00000  
       1        12         1      2012            pt_mon     HautFaysWimbe    9232.80000       0.07460      10.21148       0.00000     117.25656       0.00000       0.00000       0.00000       1.70807       0.00000       0.00000       0.00000       0.00000       0.00000       0.00000       0.00000       0.00000       0.00000  
       1         1         1      2013            pt_mon     HautFaysWimbe   13002.00000       0.14562       7.85321       0.00000      93.35436       0.00000       0.00000       0.00000       1.87749       0.00000       0.00000       0.00000       0.00000       0.00000       0.00000       0.00000       0.00000       0.00000  
       1         2         1      2013            pt_mon     HautFaysWimbe   13002.00000       0.14562       7.85321       0.00000      93.35436       0.00000       0.00000       0.00000       1.87749       0.00000       0.00000       0.00000       0.00000       0.00000       0.00000       0.00000       0.00000       0.00000  
       1         3         1      2013            pt_mon     HautFaysWimbe   13002.00000       0.14562       7.85321       0.00000      93.35436       0.00000       0.00000       0.00000       1.87749       0.00000       0.00000       0.00000       0.00000       0.00000       0.00000       0.00000       0.00000       0.00000  
       1         4         1      2013            pt_mon     HautFaysWimbe    4431.60000       0.04033       5.72563       0.00000      31.18074       0.00000       0.00000       0.00000       1.42254       0.00000       0.00000       0.00000       0.00000       0.00000       0.00000       0.00000       0.00000       0.00000  
       1         5         1      2013            pt_mon     HautFaysWimbe    4431.60000       0.04033       5.72563       0.00000      31.18074       0.00000       0.00000       0.00000       1.42254       0.00000       0.00000       0.00000       0.00000       0.00000       0.00000       0.00000       0.00000       0.00000  
       1         6         1      2013            pt_mon     HautFaysWimbe    4431.60000       0.04033       5.72563       0.00000      31.18074       0.00000       0.00000       0.00000       1.42254       0.00000       0.00000       0.00000       0.00000       0.00000       0.00000       0.00000       0.00000       0.00000  
       1         7         1      2013            pt_mon     HautFaysWimbe    4167.60000       0.06001      13.06126       0.00000      38.25857       0.00000       0.00000       0.00000       1.20027       0.00000       0.00000       0.00000       0.00000       0.00000       0.00000       0.00000       0.00000       0.00000  
       1         8         1      2013            pt_mon     HautFaysWimbe    4167.60000       0.06001      13.06126       0.00000      38.25857       0.00000       0.00000       0.00000       1.20027       0.00000       0.00000       0.00000       0.00000       0.00000       0.00000       0.00000       0.00000       0.00000  
       1         9         1      2013            pt_mon     HautFaysWimbe    4167.60000       0.06001      13.06126       0.00000      38.25857       0.00000       0.00000       0.00000       1.20027       0.00000       0.00000       0.00000       0.00000       0.00000       0.00000       0.00000       0.00000       0.00000  
       1        10         1      2013            pt_mon     HautFaysWimbe    9232.80000       0.07460      10.21148       0.00000     117.25656       0.00000       0.00000       0.00000       1.70807       0.00000       0.00000       0.00000       0.00000       0.00000       0.00000       0.00000       0.00000       0.00000  
       1        11         1      2013            pt_mon     HautFaysWimbe    9232.80000       0.07460      10.21148       0.00000     117.25656       0.00000       0.00000       0.00000       1.70807       0.00000       0.00000       0.00000       0.00000       0.00000       0.00000       0.00000       0.00000       0.00000  
       1        12         1      2013            pt_mon     HautFaysWimbe    9232.80000       0.07460      10.21148       0.00000     117.25656       0.00000       0.00000       0.00000       1.70807       0.00000       0.00000       0.00000       0.00000       0.00000       0.00000       0.00000       0.00000       0.00000  
       1         1         1      2014            pt_mon     HautFaysWimbe   13002.00000       0.14562       7.85321       0.00000      93.35436       0.00000       0.00000       0.00000       1.87749       0.00000       0.00000       0.00000       0.00000       0.00000       0.00000       0.00000       0.00000       0.00000  
       1         2         1      2014            pt_mon     HautFaysWimbe   13002.00000       0.14562       7.85321       0.00000      93.35436       0.00000       0.00000       0.00000       1.87749       0.00000       0.00000       0.00000       0.00000       0.00000       0.00000       0.00000       0.00000       0.00000  
       1         3         1      2014            pt_mon     HautFaysWimbe   13002.00000       0.14562       7.85321       0.00000      93.35436       0.00000       0.00000       0.00000       1.87749       0.00000       0.00000       0.00000       0.00000       0.00000       0.00000       0.00000       0.00000       0.00000  
       1         4         1      2014            pt_mon     HautFaysWimbe    4431.60000       0.04033       5.72563       0.00000      31.18074       0.00000       0.00000       0.00000       1.42254       0.00000       0.00000       0.00000       0.00000       0.00000       0.00000       0.00000       0.00000       0.00000  
       1         5         1      2014            pt_mon     HautFaysWimbe    4431.60000       0.04033       5.72563       0.00000      31.18074       0.00000       0.00000       0.00000       1.42254       0.00000       0.00000       0.00000       0.00000       0.00000       0.00000       0.00000       0.00000       0.00000  
       1         6         1      2014            pt_mon     HautFaysWimbe    4431.60000       0.04033       5.72563       0.00000      31.18074       0.00000       0.00000       0.00000       1.42254       0.00000       0.00000       0.00000       0.00000       0.00000       0.00000       0.00000       0.00000       0.00000  
       1         7         1      2014            pt_mon     HautFaysWimbe    4167.60000       0.06001      13.06126       0.00000      38.25857       0.00000       0.00000       0.00000       1.20027       0.00000       0.00000       0.00000       0.00000       0.00000       0.00000       0.00000       0.00000       0.00000  
       1         8         1      2014            pt_mon     HautFaysWimbe    4167.60000       0.06001      13.06126       0.00000      38.25857       0.00000       0.00000       0.00000       1.20027       0.00000       0.00000       0.00000       0.00000       0.00000       0.00000       0.00000       0.00000       0.00000  
       1         9         1      2014            pt_mon     HautFaysWimbe    4167.60000       0.06001      13.06126       0.00000      38.25857       0.00000       0.00000       0.00000       1.20027       0.00000       0.00000       0.00000       0.00000       0.00000       0.00000       0.00000       0.00000       0.00000  
       1        10         1      2014            pt_mon     HautFaysWimbe    9232.80000       0.07460      10.21148       0.00000     117.25656       0.00000       0.00000       0.00000       1.70807       0.00000       0.00000       0.00000       0.00000       0.00000       0.00000       0.00000       0.00000       0.00000  
       1        11         1      2014            pt_mon     HautFaysWimbe    9232.80000       0.07460      10.21148       0.00000     117.25656       0.00000       0.00000       0.00000       1.70807       0.00000       0.00000       0.00000       0.00000       0.00000       0.00000       0.00000       0.00000       0.00000  
       1        12         1      2014            pt_mon     HautFaysWimbe    9232.80000       0.07460      10.21148       0.00000     117.25656       0.00000       0.00000       0.00000       1.70807       0.00000       0.00000       0.00000       0.00000       0.00000       0.00000       0.00000       0.00000       0.00000  
       1         1         1      2015            pt_mon     HautFaysWimbe   13002.00000       0.14562       7.85321       0.00000      93.35436       0.00000       0.00000       0.00000       1.87749       0.00000       0.00000       0.00000       0.00000       0.00000       0.00000       0.00000       0.00000       0.00000  
       1         2         1      2015            pt_mon     HautFaysWimbe   13002.00000       0.14562       7.85321       0.00000      93.35436       0.00000       0.00000       0.00000       1.87749       0.00000       0.00000       0.00000       0.00000       0.00000       0.00000       0.00000       0.00000       0.00000  
       1         3         1      2015            pt_mon     HautFaysWimbe   13002.00000       0.14562       7.85321       0.00000      93.35436       0.00000       0.00000       0.00000       1.87749       0.00000       0.00000       0.00000       0.00000       0.00000       0.00000       0.00000       0.00000       0.00000  
       1         4         1      2015            pt_mon     HautFaysWimbe    4431.60000       0.04033       5.72563       0.00000      31.18074       0.00000       0.00000       0.00000       1.42254       0.00000       0.00000       0.00000       0.00000       0.00000       0.00000       0.00000       0.00000       0.00000  
       1         5         1      2015            pt_mon     HautFaysWimbe    4431.60000       0.04033       5.72563       0.00000      31.18074       0.00000       0.00000       0.00000       1.42254       0.00000       0.00000       0.00000       0.00000       0.00000       0.00000       0.00000       0.00000       0.00000  
       1         6         1      2015            pt_mon     HautFaysWimbe    4431.60000       0.04033       5.72563       0.00000      31.18074       0.00000       0.00000       0.00000       1.42254       0.00000       0.00000       0.00000       0.00000       0.00000       0.00000       0.00000       0.00000       0.00000  
       1         7         1      2015            pt_mon     HautFaysWimbe    4167.60000       0.06001      13.06126       0.00000      38.25857       0.00000       0.00000       0.00000       1.20027       0.00000       0.00000       0.00000       0.00000       0.00000       0.00000       0.00000       0.00000       0.00000  
       1         8         1      2015            pt_mon     HautFaysWimbe    4167.60000       0.06001      13.06126       0.00000      38.25857       0.00000       0.00000       0.00000       1.20027       0.00000       0.00000       0.00000       0.00000       0.00000       0.00000       0.00000       0.00000       0.00000  
       1         9         1      2015            pt_mon     HautFaysWimbe    4167.60000       0.06001      13.06126       0.00000      38.25857       0.00000       0.00000       0.00000       1.20027       0.00000       0.00000       0.00000       0.00000       0.00000       0.00000       0.00000       0.00000       0.00000  
       1        10         1      2015            pt_mon     HautFaysWimbe    9232.80000       0.07460      10.21148       0.00000     117.25656       0.00000       0.00000       0.00000       1.70807       0.00000       0.00000       0.00000       0.00000       0.00000       0.00000       0.00000       0.00000       0.00000  
       1        11         1      2015            pt_mon     HautFaysWimbe    9232.80000       0.07460      10.21148       0.00000     117.25656       0.00000       0.00000       0.00000       1.70807       0.00000       0.00000       0.00000       0.00000       0.00000       0.00000       0.00000       0.00000       0.00000  
       1        12         1      2015            pt_mon     HautFaysWimbe    9232.80000       0.07460      10.21148       0.00000     117.25656       0.00000       0.00000       0.00000       1.70807       0.00000       0.00000       0.00000       0.00000       0.00000       0.00000       0.00000       0.00000       0.00000  
       1         1         1      2016            pt_mon     HautFaysWimbe   13002.00000       0.14562       7.85321       0.00000      93.35436       0.00000       0.00000       0.00000       1.87749       0.00000       0.00000       0.00000       0.00000       0.00000       0.00000       0.00000       0.00000       0.00000  
       1         2         1      2016            pt_mon     HautFaysWimbe   13002.00000       0.14562       7.85321       0.00000      93.35436       0.00000       0.00000       0.00000       1.87749       0.00000       0.00000       0.00000       0.00000       0.00000       0.00000       0.00000       0.00000       0.00000  
       1         3         1      2016            pt_mon     HautFaysWimbe   13002.00000       0.14562       7.85321       0.00000      93.35436       0.00000       0.00000       0.00000       1.87749       0.00000       0.00000       0.00000       0.00000       0.00000       0.00000       0.00000       0.00000       0.00000  
       1         4         1      2016            pt_mon     HautFaysWimbe    4431.60000       0.04033       5.72563       0.00000      31.18074       0.00000       0.00000       0.00000       1.42254       0.00000       0.00000       0.00000       0.00000       0.00000       0.00000       0.00000       0.00000       0.00000  
       1         5         1      2016            pt_mon     HautFaysWimbe    4431.60000       0.04033       5.72563       0.00000      31.18074       0.00000       0.00000       0.00000       1.42254       0.00000       0.00000       0.00000       0.00000       0.00000       0.00000       0.00000       0.00000       0.00000  
       1         6         1      2016            pt_mon     HautFaysWimbe    4431.60000       0.04033       5.72563       0.00000      31.18074       0.00000       0.00000       0.00000       1.42254       0.00000       0.00000       0.00000       0.00000       0.00000       0.00000       0.00000       0.00000       0.00000  
       1         7         1      2016            pt_mon     HautFaysWimbe    4167.60000       0.06001      13.06126       0.00000      38.25857       0.00000       0.00000       0.00000       1.20027       0.00000       0.00000       0.00000       0.00000       0.00000       0.00000       0.00000       0.00000       0.00000  
       1         8         1      2016            pt_mon     HautFaysWimbe    4167.60000       0.06001      13.06126       0.00000      38.25857       0.00000       0.00000       0.00000       1.20027       0.00000       0.00000       0.00000       0.00000       0.00000       0.00000       0.00000       0.00000       0.00000  
       1         9         1      2016            pt_mon     HautFaysWimbe    4167.60000       0.06001      13.06126       0.00000      38.25857       0.00000       0.00000       0.00000       1.20027       0.00000       0.00000       0.00000       0.00000       0.00000       0.00000       0.00000       0.00000       0.00000  
       1        10         1      2016            pt_mon     HautFaysWimbe    9232.80000       0.07460      10.21148       0.00000     117.25656       0.00000       0.00000       0.00000       1.70807       0.00000       0.00000       0.00000       0.00000       0.00000       0.00000       0.00000       0.00000       0.00000  
       1        11         1      2016            pt_mon     HautFaysWimbe    9232.80000       0.07460      10.21148       0.00000     117.25656       0.00000       0.00000       0.00000       1.70807       0.00000       0.00000       0.00000       0.00000       0.00000       0.00000       0.00000       0.00000       0.00000  
       1        12         1      2016            pt_mon     HautFaysWimbe    9232.80000       0.07460      10.21148       0.00000     117.25656       0.00000       0.00000       0.00000       1.70807       0.00000       0.00000       0.00000       0.00000       0.00000       0.00000       0.00000       0.00000       0.00000  
       1         1         1      2017            pt_mon     HautFaysWimbe   13002.00000       0.14562       7.85321       0.00000      93.35436       0.00000       0.00000       0.00000       1.87749       0.00000       0.00000       0.00000       0.00000       0.00000       0.00000       0.00000       0.00000       0.00000  
       1         2         1      2017            pt_mon     HautFaysWimbe   13002.00000       0.14562       7.85321       0.00000      93.35436       0.00000       0.00000       0.00000       1.87749       0.00000       0.00000       0.00000       0.00000       0.00000       0.00000       0.00000       0.00000       0.00000  
       1         3         1      2017            pt_mon     HautFaysWimbe   13002.00000       0.14562       7.85321       0.00000      93.35436       0.00000       0.00000       0.00000       1.87749       0.00000       0.00000       0.00000       0.00000       0.00000       0.00000       0.00000       0.00000       0.00000  
       1         4         1      2017            pt_mon     HautFaysWimbe    4431.60000       0.04033       5.72563       0.00000      31.18074       0.00000       0.00000       0.00000       1.42254       0.00000       0.00000       0.00000       0.00000       0.00000       0.00000       0.00000       0.00000       0.00000  
       1         5         1      2017            pt_mon     HautFaysWimbe    4431.60000       0.04033       5.72563       0.00000      31.18074       0.00000       0.00000       0.00000       1.42254       0.00000       0.00000       0.00000       0.00000       0.00000       0.00000       0.00000       0.00000       0.00000  
       1         6         1      2017            pt_mon     HautFaysWimbe    4431.60000       0.04033       5.72563       0.00000      31.18074       0.00000       0.00000       0.00000       1.42254       0.00000       0.00000       0.00000       0.00000       0.00000       0.00000       0.00000       0.00000       0.00000  
       1         7         1      2017            pt_mon     HautFaysWimbe    4167.60000       0.06001      13.06126       0.00000      38.25857       0.00000       0.00000       0.00000       1.20027       0.00000       0.00000       0.00000       0.00000       0.00000       0.00000       0.00000       0.00000       0.00000  
       1         8         1      2017            pt_mon     HautFaysWimbe    4167.60000       0.06001      13.06126       0.00000      38.25857       0.00000       0.00000       0.00000       1.20027       0.00000       0.00000       0.00000       0.00000       0.00000       0.00000       0.00000       0.00000       0.00000  
       1         9         1      2017            pt_mon     HautFaysWimbe    4167.60000       0.06001      13.06126       0.00000      38.25857       0.00000       0.00000       0.00000       1.20027       0.00000       0.00000       0.00000       0.00000       0.00000       0.00000       0.00000       0.00000       0.00000  
       1        10         1      2017            pt_mon     HautFaysWimbe    9232.80000       0.07460      10.21148       0.00000     117.25656       0.00000       0.00000       0.00000       1.70807       0.00000       0.00000       0.00000       0.00000       0.00000       0.00000       0.00000       0.00000       0.00000  
       1        11         1      2017            pt_mon     HautFaysWimbe    9232.80000       0.07460      10.21148       0.00000     117.25656       0.00000       0.00000       0.00000       1.70807       0.00000       0.00000       0.00000       0.00000       0.00000       0.00000       0.00000       0.00000       0.00000  
       1        12         1      2017            pt_mon     HautFaysWimbe    9232.80000       0.07460      10.21148       0.00000     117.25656       0.00000       0.00000       0.00000       1.70807       0.00000       0.00000       0.00000       0.00000       0.00000       0.00000       0.00000       0.00000       0.00000  
       1         1         1      2018            pt_mon     HautFaysWimbe   13002.00000       0.14562       7.85321       0.00000      93.35436       0.00000       0.00000       0.00000       1.87749       0.00000       0.00000       0.00000       0.00000       0.00000       0.00000       0.00000       0.00000       0.00000  
       1         2         1      2018            pt_mon     HautFaysWimbe   13002.00000       0.14562       7.85321       0.00000      93.35436       0.00000       0.00000       0.00000       1.87749       0.00000       0.00000       0.00000       0.00000       0.00000       0.00000       0.00000       0.00000       0.00000  
       1         3         1      2018            pt_mon     HautFaysWimbe   13002.00000       0.14562       7.85321       0.00000      93.35436       0.00000       0.00000       0.00000       1.87749       0.00000       0.00000       0.00000       0.00000       0.00000       0.00000       0.00000       0.00000       0.00000  
       1         4         1      2018            pt_mon     HautFaysWimbe    4431.60000       0.04033       5.72563       0.00000      31.18074       0.00000       0.00000       0.00000       1.42254       0.00000       0.00000       0.00000       0.00000       0.00000       0.00000       0.00000       0.00000       0.00000  
       1         5         1      2018            pt_mon     HautFaysWimbe    4431.60000       0.04033       5.72563       0.00000      31.18074       0.00000       0.00000       0.00000       1.42254       0.00000       0.00000       0.00000       0.00000       0.00000       0.00000       0.00000       0.00000       0.00000  
       1         6         1      2018            pt_mon     HautFaysWimbe    4431.60000       0.04033       5.72563       0.00000      31.18074       0.00000       0.00000       0.00000       1.42254       0.00000       0.00000       0.00000       0.00000       0.00000       0.00000       0.00000       0.00000       0.00000  
       1         7         1      2018            pt_mon     HautFaysWimbe    4167.60000       0.06001      13.06126       0.00000      38.25857       0.00000       0.00000       0.00000       1.20027       0.00000       0.00000       0.00000       0.00000       0.00000       0.00000       0.00000       0.00000       0.00000  
       1         8         1      2018            pt_mon     HautFaysWimbe    4167.60000       0.06001      13.06126       0.00000      38.25857       0.00000       0.00000       0.00000       1.20027       0.00000       0.00000       0.00000       0.00000       0.00000       0.00000       0.00000       0.00000       0.00000  
       1         9         1      2018            pt_mon     HautFaysWimbe    4167.60000       0.06001      13.06126       0.00000      38.25857       0.00000       0.00000       0.00000       1.20027       0.00000       0.00000       0.00000       0.00000       0.00000       0.00000       0.00000       0.00000       0.00000  
       1        10         1      2018            pt_mon     HautFaysWimbe    9232.80000       0.07460      10.21148       0.00000     117.25656       0.00000       0.00000       0.00000       1.70807       0.00000       0.00000       0.00000       0.00000       0.00000       0.00000       0.00000       0.00000       0.00000  
       1        11         1      2018            pt_mon     HautFaysWimbe    9232.80000       0.07460      10.21148       0.00000     117.25656       0.00000       0.00000       0.00000       1.70807       0.00000       0.00000       0.00000       0.00000       0.00000       0.00000       0.00000       0.00000       0.00000  
       1        12         1      2018            pt_mon     HautFaysWimbe    9232.80000       0.07460      10.21148       0.00000     117.25656       0.00000       0.00000       0.00000       1.70807       0.00000       0.00000       0.00000       0.00000       0.00000       0.00000       0.00000       0.00000       0.00000  
       1         1         1      2019            pt_mon     HautFaysWimbe   13002.00000       0.14562       7.85321       0.00000      93.35436       0.00000       0.00000       0.00000       1.87749       0.00000       0.00000       0.00000       0.00000       0.00000       0.00000       0.00000       0.00000       0.00000  
       1         2         1      2019            pt_mon     HautFaysWimbe   13002.00000       0.14562       7.85321       0.00000      93.35436       0.00000       0.00000       0.00000       1.87749       0.00000       0.00000       0.00000       0.00000       0.00000       0.00000       0.00000       0.00000       0.00000  
       1         3         1      2019            pt_mon     HautFaysWimbe   13002.00000       0.14562       7.85321       0.00000      93.35436       0.00000       0.00000       0.00000       1.87749       0.00000       0.00000       0.00000       0.00000       0.00000       0.00000       0.00000       0.00000       0.00000  
       1         4         1      2019            pt_mon     HautFaysWimbe    4431.60000       0.04033       5.72563       0.00000      31.18074       0.00000       0.00000       0.00000       1.42254       0.00000       0.00000       0.00000       0.00000       0.00000       0.00000       0.00000       0.00000       0.00000  
       1         5         1      2019            pt_mon     HautFaysWimbe    4431.60000       0.04033       5.72563       0.00000      31.18074       0.00000       0.00000       0.00000       1.42254       0.00000       0.00000       0.00000       0.00000       0.00000       0.00000       0.00000       0.00000       0.00000  
       1         6         1      2019            pt_mon     HautFaysWimbe    4431.60000       0.04033       5.72563       0.00000      31.18074       0.00000       0.00000       0.00000       1.42254       0.00000       0.00000       0.00000       0.00000       0.00000       0.00000       0.00000       0.00000       0.00000  
       1         7         1      2019            pt_mon     HautFaysWimbe    4167.60000       0.06001      13.06126       0.00000      38.25857       0.00000       0.00000       0.00000       1.20027       0.00000       0.00000       0.00000       0.00000       0.00000       0.00000       0.00000       0.00000       0.00000  
       1         8         1      2019            pt_mon     HautFaysWimbe    4167.60000       0.06001      13.06126       0.00000      38.25857       0.00000       0.00000       0.00000       1.20027       0.00000       0.00000       0.00000       0.00000       0.00000       0.00000       0.00000       0.00000       0.00000  
       1         9         1      2019            pt_mon     HautFaysWimbe    4167.60000       0.06001      13.06126       0.00000      38.25857       0.00000       0.00000       0.00000       1.20027       0.00000       0.00000       0.00000       0.00000       0.00000       0.00000       0.00000       0.00000       0.00000  
       1        10         1      2019            pt_mon     HautFaysWimbe    9232.80000       0.07460      10.21148       0.00000     117.25656       0.00000       0.00000       0.00000       1.70807       0.00000       0.00000       0.00000       0.00000       0.00000       0.00000       0.00000       0.00000       0.00000  
       1        11         1      2019            pt_mon     HautFaysWimbe    9232.80000       0.07460      10.21148       0.00000     117.25656       0.00000       0.00000       0.00000       1.70807       0.00000       0.00000       0.00000       0.00000       0.00000       0.00000       0.00000       0.00000       0.00000  
       1        12         1      2019            pt_mon     HautFaysWimbe    9232.80000       0.07460      10.21148       0.00000     117.25656       0.00000       0.00000       0.00000       1.70807       0.00000       0.00000       0.00000       0.00000       0.00000       0.00000       0.00000       0.00000       0.00000  
       1         1         1      2020            pt_mon     HautFaysWimbe   13002.00000       0.14562       7.85321       0.00000      93.35436       0.00000       0.00000       0.00000       1.87749       0.00000       0.00000       0.00000       0.00000       0.00000       0.00000       0.00000       0.00000       0.00000  
       1         2         1      2020            pt_mon     HautFaysWimbe   13002.00000       0.14562       7.85321       0.00000      93.35436       0.00000       0.00000       0.00000       1.87749       0.00000       0.00000       0.00000       0.00000       0.00000       0.00000       0.00000       0.00000       0.00000  
       1         3         1      2020            pt_mon     HautFaysWimbe   13002.00000       0.14562       7.85321       0.00000      93.35436       0.00000       0.00000       0.00000       1.87749       0.00000       0.00000       0.00000       0.00000       0.00000       0.00000       0.00000       0.00000       0.00000  
       1         4         1      2020            pt_mon     HautFaysWimbe    4431.60000       0.04033       5.72563       0.00000      31.18074       0.00000       0.00000       0.00000       1.42254       0.00000       0.00000       0.00000       0.00000       0.00000       0.00000       0.00000       0.00000       0.00000  
       1         5         1      2020            pt_mon     HautFaysWimbe    4431.60000       0.04033       5.72563       0.00000      31.18074       0.00000       0.00000       0.00000       1.42254       0.00000       0.00000       0.00000       0.00000       0.00000       0.00000       0.00000       0.00000       0.00000  
       1         6         1      2020            pt_mon     HautFaysWimbe    4431.60000       0.04033       5.72563       0.00000      31.18074       0.00000       0.00000       0.00000       1.42254       0.00000       0.00000       0.00000       0.00000       0.00000       0.00000       0.00000       0.00000       0.00000  
       1         7         1      2020            pt_mon     HautFaysWimbe    4167.60000       0.06001      13.06126       0.00000      38.25857       0.00000       0.00000       0.00000       1.20027       0.00000       0.00000       0.00000       0.00000       0.00000       0.00000       0.00000       0.00000       0.00000  
       1         8         1      2020            pt_mon     HautFaysWimbe    4167.60000       0.06001      13.06126       0.00000      38.25857       0.00000       0.00000       0.00000       1.20027       0.00000       0.00000       0.00000       0.00000       0.00000       0.00000       0.00000       0.00000       0.00000  
       1         9         1      2020            pt_mon     HautFaysWimbe    4167.60000       0.06001      13.06126       0.00000      38.25857       0.00000       0.00000       0.00000       1.20027       0.00000       0.00000       0.00000       0.00000       0.00000       0.00000       0.00000       0.00000       0.00000  
       1        10         1      2020            pt_mon     HautFaysWimbe    9232.80000       0.07460      10.21148       0.00000     117.25656       0.00000       0.00000       0.00000       1.70807       0.00000       0.00000       0.00000       0.00000       0.00000       0.00000       0.00000       0.00000       0.00000  
       1        11         1      2020            pt_mon     HautFaysWimbe    9232.80000       0.07460      10.21148       0.00000     117.25656       0.00000       0.00000       0.00000       1.70807       0.00000       0.00000       0.00000       0.00000       0.00000       0.00000       0.00000       0.00000       0.00000  
       1        12         1      2020            pt_mon     HautFaysWimbe    9232.80000       0.07460      10.21148       0.00000     117.25656       0.00000       0.00000       0.00000       1.70807       0.00000       0.00000       0.00000       0.00000       0.00000       0.00000       0.00000       0.00000       0.00000  
       1         1         1      2021            pt_mon     HautFaysWimbe   13002.00000       0.14562       7.85321       0.00000      93.35436       0.00000       0.00000       0.00000       1.87749       0.00000       0.00000       0.00000       0.00000       0.00000       0.00000       0.00000       0.00000       0.00000  
       1         2         1      2021            pt_mon     HautFaysWimbe   13002.00000       0.14562       7.85321       0.00000      93.35436       0.00000       0.00000       0.00000       1.87749       0.00000       0.00000       0.00000       0.00000       0.00000       0.00000       0.00000       0.00000       0.00000  
       1         3         1      2021            pt_mon     HautFaysWimbe   13002.00000       0.14562       7.85321       0.00000      93.35436       0.00000       0.00000       0.00000       1.87749       0.00000       0.00000       0.00000       0.00000       0.00000       0.00000       0.00000       0.00000       0.00000  
       1         4         1      2021            pt_mon     HautFaysWimbe    4431.60000       0.04033       5.72563       0.00000      31.18074       0.00000       0.00000       0.00000       1.42254       0.00000       0.00000       0.00000       0.00000       0.00000       0.00000       0.00000       0.00000       0.00000  
       1         5         1      2021            pt_mon     HautFaysWimbe    4431.60000       0.04033       5.72563       0.00000      31.18074       0.00000       0.00000       0.00000       1.42254       0.00000       0.00000       0.00000       0.00000       0.00000       0.00000       0.00000       0.00000       0.00000  
       1         6         1      2021            pt_mon     HautFaysWimbe    4431.60000       0.04033       5.72563       0.00000      31.18074       0.00000       0.00000       0.00000       1.42254       0.00000       0.00000       0.00000       0.00000       0.00000       0.00000       0.00000       0.00000       0.00000  
       1         7         1      2021            pt_mon     HautFaysWimbe    4167.60000       0.06001      13.06126       0.00000      38.25857       0.00000       0.00000       0.00000       1.20027       0.00000       0.00000       0.00000       0.00000       0.00000       0.00000       0.00000       0.00000       0.00000  
       1         8         1      2021            pt_mon     HautFaysWimbe    4167.60000       0.06001      13.06126       0.00000      38.25857       0.00000       0.00000       0.00000       1.20027       0.00000       0.00000       0.00000       0.00000       0.00000       0.00000       0.00000       0.00000       0.00000  
       1         9         1      2021            pt_mon     HautFaysWimbe    4167.60000       0.06001      13.06126       0.00000      38.25857       0.00000       0.00000       0.00000       1.20027       0.00000       0.00000       0.00000       0.00000       0.00000       0.00000       0.00000       0.00000       0.00000  
       1        10         1      2021            pt_mon     HautFaysWimbe    9232.80000       0.07460      10.21148       0.00000     117.25656       0.00000       0.00000       0.00000       1.70807       0.00000       0.00000       0.00000       0.00000       0.00000       0.00000       0.00000       0.00000       0.00000  
       1        11         1      2021            pt_mon     HautFaysWimbe    9232.80000       0.07460      10.21148       0.00000     117.25656       0.00000       0.00000       0.00000       1.70807       0.00000       0.00000       0.00000       0.00000       0.00000       0.00000       0.00000       0.00000       0.00000  
       1        12         1      2021            pt_mon     HautFaysWimbe    9232.80000       0.07460      10.21148       0.00000     117.25656       0.00000       0.00000       0.00000       1.70807       0.00000       0.00000       0.00000       0.00000       0.00000       0.00000       0.00000       0.00000       0.00000  
