recall.rec: written by SWAT+ editor v2.1.0 on 2023-09-11 10:25 for SWAT+ rev.60.5.4
      id  name               rec_typ  file              
       1  HautFaysWimbe            2  HautFaysWimbe.rec  
       2  Pondrome                 2  Pondrome.rec      
