 optaincs10                SWAT+ Jan 11 2024        MODULAR Rev 2024.61.0                                 
                                        zmx       usle_k       sumfc       sumul      usle_p     usle_ls        esco        epco     cn3_swf       perco     latq_co   tiledrain 
 sname           hydgrp                 (mm)                    (mm)        (mm)                                                                                     0=notile;1=tile;
SDs             C                   800.0000      0.0000    167.5000    326.1500      0.1000      4.1618      0.0500      0.4000      0.0000      0.0500      0.9000           0
SDs             C                   800.0000      0.0000    167.5000    326.1500      0.1000      4.9863      0.0500      0.4000      0.0000      0.0500      0.9000           0
SDs             C                   800.0000      0.0000    167.5000    326.1500      0.1000      2.2548      0.0500      0.4000      0.0000      0.0500      0.9000           0
LV              C                  1000.0000      0.0000    123.0000    274.9583      0.2000      6.8931      0.0500      0.3000      0.0000      0.0500      0.9000           0
CM2             D                  1000.0000      0.0000    107.0000    150.6253      0.2000      2.9053      0.0500      0.3000      0.0000      0.0500      0.9000           0
SDd             D                   150.0000      0.0000     37.5000     63.5745      1.0000      0.6417      0.0500      0.8000      0.0000      0.0500      0.9000           0
CM2             D                  1000.0000      0.0000    107.0000    150.6253      0.2000      4.1090      0.0500      0.3000      0.0000      0.0500      0.9000           0
STR             D                  1000.0000      0.0000    134.5000    185.8970      1.0000      1.2494      0.0500      0.5500      0.9500      0.1000      0.0100           1
STV             D                  1000.0000      0.0000    134.5000    185.8970      1.0000      1.0996      0.0500      0.5500      0.9500      0.1000      0.0100           1
STV             D                  1000.0000      0.0000    134.5000    185.8970      0.7000      0.7227      0.0500      0.5500      0.9500      0.1000      0.0100           1
STV             D                  1000.0000      0.0000    134.5000    185.8970      0.7000      0.4636      0.0500      0.5500      0.9500      0.1000      0.0100           1
STV             D                  1000.0000      0.0000    134.5000    185.8970      0.7000      1.0398      0.0500      0.5500      0.0000      0.0500      0.9000           0
STV             D                  1000.0000      0.0000    134.5000    185.8970      0.7000      0.8772      0.0500      0.5500      0.9500      0.1000      0.0100           1
STV             D                  1000.0000      0.0000    134.5000    185.8970      0.7000      0.1640      0.0500      0.5500      0.9500      0.1000      0.0100           1
SDd             D                   150.0000      0.0000     37.5000     63.5745      1.0000      1.2498      0.0500      0.8000      0.9500      0.1000      0.9000           1
SDd             D                   150.0000      0.0000     37.5000     63.5745      1.0000      0.5536      0.0500      0.8000      0.9500      0.1000      0.9000           1
SDd             D                   150.0000      0.0000     37.5000     63.5745      1.0000      0.3718      0.0500      0.8000      0.9500      0.1000      0.2000           1
SDd             D                   150.0000      0.0000     37.5000     63.5745      1.0000      0.8209      0.0500      0.8000      0.9500      0.1000      0.9000           1
STV             D                  1000.0000      0.0000    134.5000    185.8970      1.0000      1.0818      0.0500      0.8000      0.9500      0.1000      0.9000           1
STV             D                  1000.0000      0.0000    134.5000    185.8970      1.0000      0.6760      0.0500      0.8000      0.9500      0.1000      0.9000           1
SDd             D                   150.0000      0.0000     37.5000     63.5745      0.2000      1.3423      0.0500      0.3000      0.0000      0.0500      0.9000           0
SDd             D                   150.0000      0.0000     37.5000     63.5745      0.2000      1.4381      0.0500      0.3000      0.0000      0.0500      0.9000           0
STV             D                  1000.0000      0.0000    134.5000    185.8970      0.2000      0.9651      0.0500      0.3000      0.0000      0.0500      0.9000           0
SDd             D                   150.0000      0.0000     37.5000     63.5745      0.2000      0.8596      0.0500      0.3000      0.0000      0.0500      0.9000           0
STV             D                  1000.0000      0.0000    134.5000    185.8970      0.2000      0.6693      0.0500      0.3000      0.0000      0.0500      0.9000           0
SDd             D                   150.0000      0.0000     37.5000     63.5745      0.2000      0.8272      0.0500      0.3000      0.0000      0.0500      0.9000           0
STV             D                  1000.0000      0.0000    134.5000    185.8970      0.2000      1.1539      0.0500      0.3000      0.0000      0.0500      0.9000           0
STV             D                  1000.0000      0.0000    134.5000    185.8970      0.2000      2.2042      0.0500      0.3000      0.0000      0.0500      0.9000           0
SDd             D                   150.0000      0.0000     37.5000     63.5745      0.2000      1.3363      0.0500      0.3000      0.0000      0.0500      0.9000           0
SDd             D                   150.0000      0.0000     37.5000     63.5745      0.2000      3.5438      0.0500      0.3000      0.0000      0.0500      0.9000           0
SDd             D                   150.0000      0.0000     37.5000     63.5745      0.2000      0.1958      0.0500      0.3000      0.9500      0.0500      0.0100           0
SDd             D                   150.0000      0.0000     37.5000     63.5745      0.2000      1.8940      0.0500      0.3000      0.0000      0.0500      0.9000           0
SDd             D                   150.0000      0.0000     37.5000     63.5745      0.2000      0.4555      0.0500      0.3000      0.0000      0.0500      0.9000           0
SDd             D                   150.0000      0.0000     37.5000     63.5745      0.2000      1.5085      0.0500      0.3000      0.0000      0.0500      0.9000           0
STV             D                  1000.0000      0.0000    134.5000    185.8970      0.2000      1.1013      0.0500      0.3000      0.0000      0.0500      0.9000           0
SDd             D                   150.0000      0.0000     37.5000     63.5745      0.2000      2.3817      0.0500      0.3000      0.0000      0.0500      0.9000           0
SDd             D                   150.0000      0.0000     37.5000     63.5745      0.1000      1.6818      0.0500      0.4000      0.0000      0.0500      0.9000           0
SDd             D                   150.0000      0.0000     37.5000     63.5745      0.1000      2.7198      0.0500      0.4000      0.0000      0.0500      0.9000           0
SDd             D                   150.0000      0.0000     37.5000     63.5745      0.1000      1.3632      0.0500      0.4000      0.0000      0.0500      0.9000           0
SDd             D                   150.0000      0.0000     37.5000     63.5745      1.0000      1.1239      0.0500      0.8000      0.9500      0.1000      0.9000           1
SDd             D                   150.0000      0.0000     37.5000     63.5745      0.2000      4.9385      0.0500      0.3000      0.0000      0.0500      0.9000           0
SDd             D                   150.0000      0.0000     37.5000     63.5745      0.2000      4.2407      0.0500      0.3000      0.0000      0.0500      0.9000           0
SDd             D                   150.0000      0.0000     37.5000     63.5745      0.2000      4.4201      0.0500      0.3000      0.0000      0.0500      0.9000           0
SDd             D                   150.0000      0.0000     37.5000     63.5745      0.2000      1.7258      0.0500      0.3000      0.0000      0.0500      0.9000           0
SDd             D                   150.0000      0.0000     37.5000     63.5745      0.2000      2.0366      0.0500      0.3000      0.0000      0.0500      0.9000           0
SDd             D                   150.0000      0.0000     37.5000     63.5745      0.2000      4.7350      0.0500      0.3000      0.0000      0.0500      0.9000           0
SDd             D                   150.0000      0.0000     37.5000     63.5745      0.2000      1.0294      0.0500      0.3000      0.0000      0.0500      0.9000           0
SDd             D                   150.0000      0.0000     37.5000     63.5745      0.2000      0.4630      0.0500      0.3000      0.0000      0.0500      0.9000           0
SDd             D                   150.0000      0.0000     37.5000     63.5745      0.2000      3.4317      0.0500      0.3000      0.0000      0.0500      0.9000           0
SDd             D                   150.0000      0.0000     37.5000     63.5745      0.2000      2.8532      0.0500      0.3000      0.0000      0.0500      0.9000           0
SDd             D                   150.0000      0.0000     37.5000     63.5745      0.1000      0.1886      0.0500      0.4000      0.9500      0.0500      0.0100           0
SDd             D                   150.0000      0.0000     37.5000     63.5745      0.1000      0.0775      0.0500      0.4000      0.9500      0.0500      0.0100           0
STV             D                  1000.0000      0.0000    134.5000    185.8970      0.7000      0.4446      0.0500      0.5500      0.9500      0.1000      0.0100           1
LV              C                  1000.0000      0.0000    123.0000    274.9583      0.7000      1.3195      0.0500      0.5500      0.0000      0.5000      0.9000           0
STV             D                  1000.0000      0.0000    134.5000    185.8970      0.7000      0.1734      0.0500      0.5500      0.9500      0.1000      0.0100           1
STV             D                  1000.0000      0.0000    134.5000    185.8970      1.0000      0.2680      0.0500      0.5500      0.9500      0.1000      0.0100           1
STV             D                  1000.0000      0.0000    134.5000    185.8970      0.7000      0.9226      0.0500      0.5500      0.9500      0.1000      0.0100           1
STV             D                  1000.0000      0.0000    134.5000    185.8970      0.7000      0.3740      0.0500      0.5500      0.9500      0.1000      0.0100           1
STV             D                  1000.0000      0.0000    134.5000    185.8970      0.7000      0.2506      0.0500      0.5500      0.9500      0.1000      0.0100           1
STV             D                  1000.0000      0.0000    134.5000    185.8970      0.7000      0.2683      0.0500      0.5500      0.9500      0.1000      0.0100           1
LV              C                  1000.0000      0.0000    123.0000    274.9583      0.7000      1.4472      0.0500      0.5500      0.0000      0.5000      0.9000           0
GLC             C                  1000.0000      0.0000    181.5000    272.9636      0.7000      0.2252      0.0500      0.5500      0.9500      0.1000      0.0100           1
STV             D                  1000.0000      0.0000    134.5000    185.8970      0.3000      1.1977      0.0500      0.5500      0.9500      0.1000      0.0100           1
STV             D                  1000.0000      0.0000    134.5000    185.8970      0.2000      0.7029      0.0500      0.5500      0.9500      0.1000      0.0100           1
STV             D                  1000.0000      0.0000    134.5000    185.8970      1.0000      0.2197      0.0500      0.5500      0.9500      0.1000      0.0100           1
STV             D                  1000.0000      0.0000    134.5000    185.8970      0.7000      0.3403      0.0500      0.5500      0.9500      0.1000      0.0100           1
STV             D                  1000.0000      0.0000    134.5000    185.8970      0.7000      0.2696      0.0500      0.5500      0.9500      0.1000      0.0100           1
STV             D                  1000.0000      0.0000    134.5000    185.8970      0.7000      0.3759      0.0500      0.5500      0.9500      0.1000      0.0100           1
SDd             D                   150.0000      0.0000     37.5000     63.5745      0.1000      0.9522      0.0500      0.4000      0.0000      0.0500      0.9000           0
STR             D                  1000.0000      0.0000    134.5000    185.8970      1.0000      0.7361      0.0500      0.8000      0.9500      0.1000      0.9000           1
SDd             D                   150.0000      0.0000     37.5000     63.5745      0.2000      0.4041      0.0500      0.3000      0.3000      0.0500      0.2000           0
SDd             D                   150.0000      0.0000     37.5000     63.5745      1.0000      0.6577      0.0500      0.8000      0.0000      0.0500      0.9000           0
SDd             D                   150.0000      0.0000     37.5000     63.5745      1.0000      0.3568      0.0500      0.8000      0.3000      0.0500      0.2000           0
SDd             D                   150.0000      0.0000     37.5000     63.5745      1.0000      2.9328      0.0500      0.8000      0.0000      0.0500      0.9000           0
SDd             D                   150.0000      0.0000     37.5000     63.5745      1.0000      0.5157      0.0500      0.8000      0.0000      0.0500      0.9000           0
SDd             D                   150.0000      0.0000     37.5000     63.5745      1.0000      2.6785      0.0500      0.8000      0.0000      0.0500      0.9000           0
SDd             D                   150.0000      0.0000     37.5000     63.5745      0.1000      1.2236      0.0500      0.4000      0.0000      0.0500      0.9000           0
STR             D                  1000.0000      0.0000    134.5000    185.8970      0.1000      0.5726      0.0500      0.4000      0.0000      0.0500      0.9000           0
SDd             D                   150.0000      0.0000     37.5000     63.5745      1.0000      0.7212      0.0500      0.8000      0.0000      0.0500      0.9000           0
STR             D                  1000.0000      0.0000    134.5000    185.8970      1.0000      0.3157      0.0500      0.5500      0.9500      0.1000      0.0100           1
STR             D                  1000.0000      0.0000    134.5000    185.8970      1.0000      0.2830      0.0500      0.5500      0.9500      0.1000      0.0100           1
STR             D                  1000.0000      0.0000    134.5000    185.8970      0.2000      0.2463      0.0500      0.5500      0.9500      0.1000      0.0100           1
STV             D                  1000.0000      0.0000    134.5000    185.8970      0.2000      0.4492      0.0500      0.5500      0.9500      0.1000      0.0100           1
STR             D                  1000.0000      0.0000    134.5000    185.8970      1.0000      0.2691      0.0500      0.5500      0.9500      0.1000      0.0100           1
SDd             D                   150.0000      0.0000     37.5000     63.5745      1.0000      7.9182      0.0500      0.5500      0.9500      0.1000      0.0100           1
STE             D                  1000.0000      0.0000     47.7500     94.8604      1.0000      0.3689      0.0500      0.5500      0.9500      0.1000      0.0100           1
STP             D                  1000.0000      0.0000    125.6321    199.8815      1.0000      0.7798      0.0500      0.5500      0.9500      0.1000      0.0100           1
STV             D                  1000.0000      0.0000    134.5000    185.8970      1.0000      0.2781      0.0500      0.5500      0.9500      0.1000      0.0100           1
STV             D                  1000.0000      0.0000    134.5000    185.8970      1.0000      0.2129      0.0500      0.5500      0.9500      0.1000      0.0100           1
STV             D                  1000.0000      0.0000    134.5000    185.8970      0.5000      0.4412      0.0500      0.5500      0.9500      0.1000      0.0100           1
SDd             D                   150.0000      0.0000     37.5000     63.5745      0.5000      0.9241      0.0500      0.5500      0.0000      0.0500      0.9000           0
SDd             D                   150.0000      0.0000     37.5000     63.5745      0.5000      0.4139      0.0500      0.5500      0.0000      0.0500      0.9000           0
STR             D                  1000.0000      0.0000    134.5000    185.8970      1.0000      0.5909      0.0500      0.8000      0.9500      0.1000      0.9000           1
STR             D                  1000.0000      0.0000    134.5000    185.8970      1.0000      0.5792      0.0500      0.8000      0.9500      0.1000      0.9000           1
STR             D                  1000.0000      0.0000    134.5000    185.8970      1.0000      0.5543      0.0500      0.8000      0.9500      0.1000      0.9000           1
SDd             D                   150.0000      0.0000     37.5000     63.5745      1.0000      0.4927      0.0500      0.8000      0.9500      0.1000      0.9000           1
SDd             D                   150.0000      0.0000     37.5000     63.5745      1.0000      0.4215      0.0500      0.8000      0.9500      0.1000      0.9000           1
SDd             D                   150.0000      0.0000     37.5000     63.5745      1.0000      0.6851      0.0500      0.8000      0.9500      0.1000      0.9000           1
STV             D                  1000.0000      0.0000    134.5000    185.8970      1.0000      0.5693      0.0500      0.8000      0.9500      0.1000      0.9000           1
STV             D                  1000.0000      0.0000    134.5000    185.8970      1.0000      0.3737      0.0500      0.8000      0.9500      0.1000      0.2000           1
STV             D                  1000.0000      0.0000    134.5000    185.8970      1.0000      0.2851      0.0500      0.8000      0.9500      0.1000      0.2000           1
SDd             D                   150.0000      0.0000     37.5000     63.5745      1.0000      0.7811      0.0500      0.8000      0.9500      0.1000      0.9000           1
STV             D                  1000.0000      0.0000    134.5000    185.8970      1.0000      1.1767      0.0500      0.8000      0.9500      0.1000      0.9000           1
STV             D                  1000.0000      0.0000    134.5000    185.8970      1.0000      0.3306      0.0500      0.8000      0.9500      0.1000      0.2000           1
STR             D                  1000.0000      0.0000    134.5000    185.8970      0.2000      0.6511      0.0500      0.3000      0.0000      0.0500      0.9000           0
SDd             D                   150.0000      0.0000     37.5000     63.5745      0.2000      0.7969      0.0500      0.3000      0.0000      0.0500      0.9000           0
STV             D                  1000.0000      0.0000    134.5000    185.8970      0.2000      0.6810      0.0500      0.3000      0.0000      0.0500      0.9000           0
SDd             D                   150.0000      0.0000     37.5000     63.5745      0.2000      0.9856      0.0500      0.3000      0.0000      0.0500      0.9000           0
SDd             D                   150.0000      0.0000     37.5000     63.5745      0.2000      0.4307      0.0500      0.3000      0.0000      0.0500      0.9000           0
SDd             D                   150.0000      0.0000     37.5000     63.5745      0.2000      1.9008      0.0500      0.3000      0.0000      0.0500      0.9000           0
SDd             D                   150.0000      0.0000     37.5000     63.5745      0.2000      1.3917      0.0500      0.3000      0.0000      0.0500      0.9000           0
SDd             D                   150.0000      0.0000     37.5000     63.5745      0.2000      0.6699      0.0500      0.3000      0.0000      0.0500      0.9000           0
STV             D                  1000.0000      0.0000    134.5000    185.8970      0.2000      0.3826      0.0500      0.3000      0.3000      0.0500      0.2000           0
SDd             D                   150.0000      0.0000     37.5000     63.5745      0.2000      0.8658      0.0500      0.3000      0.0000      0.0500      0.9000           0
STR             D                  1000.0000      0.0000    134.5000    185.8970      0.1000      0.8499      0.0500      0.4000      0.0000      0.0500      0.9000           0
SDd             D                   150.0000      0.0000     37.5000     63.5745      0.1000      1.7854      0.0500      0.4000      0.0000      0.0500      0.9000           0
SDd             D                   150.0000      0.0000     37.5000     63.5745      0.1000      0.8509      0.0500      0.4000      0.0000      0.0500      0.9000           0
SDd             D                   150.0000      0.0000     37.5000     63.5745      0.1000      1.1514      0.0500      0.4000      0.0000      0.0500      0.9000           0
SDd             D                   150.0000      0.0000     37.5000     63.5745      0.1000      1.4798      0.0500      0.4000      0.0000      0.0500      0.9000           0
SDd             D                   150.0000      0.0000     37.5000     63.5745      0.1000      1.0144      0.0500      0.4000      0.0000      0.0500      0.9000           0
SDd             D                   150.0000      0.0000     37.5000     63.5745      0.1000      1.8028      0.0500      0.4000      0.0000      0.0500      0.9000           0
SDd             D                   150.0000      0.0000     37.5000     63.5745      0.1000      2.3082      0.0500      0.4000      0.0000      0.0500      0.9000           0
SDd             D                   150.0000      0.0000     37.5000     63.5745      0.1000      1.1304      0.0500      0.4000      0.0000      0.0500      0.9000           0
SDd             D                   150.0000      0.0000     37.5000     63.5745      0.1000      3.5037      0.0500      0.4000      0.0000      0.0500      0.9000           0
SDd             D                   150.0000      0.0000     37.5000     63.5745      0.2000      1.0285      0.0500      0.3000      0.0000      0.0500      0.9000           0
SDd             D                   150.0000      0.0000     37.5000     63.5745      0.2000      0.7460      0.0500      0.3000      0.0000      0.0500      0.9000           0
SDd             D                   150.0000      0.0000     37.5000     63.5745      0.2000      0.9797      0.0500      0.3000      0.0000      0.0500      0.9000           0
SDd             D                   150.0000      0.0000     37.5000     63.5745      1.0000      3.0956      0.0500      0.8000      0.0000      0.0500      0.9000           0
SDd             D                   150.0000      0.0000     37.5000     63.5745      0.1000      1.0023      0.0500      0.4000      0.0000      0.0500      0.9000           0
SDd             D                   150.0000      0.0000     37.5000     63.5745      0.1000      0.9120      0.0500      0.4000      0.0000      0.0500      0.9000           0
SDd             D                   150.0000      0.0000     37.5000     63.5745      0.1000      0.8996      0.0500      0.4000      0.0000      0.0500      0.9000           0
SDd             D                   150.0000      0.0000     37.5000     63.5745      0.1000      0.7749      0.0500      0.4000      0.0000      0.0500      0.9000           0
SDd             D                   150.0000      0.0000     37.5000     63.5745      0.1000      0.5056      0.0500      0.4000      0.0000      0.0500      0.9000           0
SDd             D                   150.0000      0.0000     37.5000     63.5745      0.1000      0.7024      0.0500      0.4000      0.0000      0.0500      0.9000           0
STV             D                  1000.0000      0.0000    134.5000    185.8970      0.1000      0.8209      0.0500      0.4000      0.0000      0.0500      0.9000           0
SDd             D                   150.0000      0.0000     37.5000     63.5745      0.1000      1.4884      0.0500      0.4000      0.0000      0.0500      0.9000           0
SDd             D                   150.0000      0.0000     37.5000     63.5745      0.1000      3.0072      0.0500      0.4000      0.0000      0.0500      0.9000           0
SDd             D                   150.0000      0.0000     37.5000     63.5745      0.1000      5.5176      0.0500      0.4000      0.0000      0.0500      0.9000           0
SDd             D                   150.0000      0.0000     37.5000     63.5745      0.1000      1.4770      0.0500      0.4000      0.0000      0.0500      0.9000           0
SDd             D                   150.0000      0.0000     37.5000     63.5745      0.1000      0.9007      0.0500      0.4000      0.0000      0.0500      0.9000           0
SDd             D                   150.0000      0.0000     37.5000     63.5745      0.1000      0.6241      0.0500      0.4000      0.0000      0.0500      0.9000           0
SDd             D                   150.0000      0.0000     37.5000     63.5745      0.1000      1.0039      0.0500      0.4000      0.0000      0.0500      0.9000           0
SDd             D                   150.0000      0.0000     37.5000     63.5745      1.0000      0.5512      0.0500      0.8000      0.9500      0.1000      0.9000           1
SDd             D                   150.0000      0.0000     37.5000     63.5745      0.1000      2.8971      0.0500      0.4000      0.0000      0.0500      0.9000           0
SDd             D                   150.0000      0.0000     37.5000     63.5745      0.2000      2.5650      0.0500      0.3000      0.0000      0.0500      0.9000           0
SDd             D                   150.0000      0.0000     37.5000     63.5745      0.1000      1.2026      0.0500      0.4000      0.0000      0.0500      0.9000           0
SDd             D                   150.0000      0.0000     37.5000     63.5745      0.1000      0.8892      0.0500      0.4000      0.0000      0.0500      0.9000           0
SDd             D                   150.0000      0.0000     37.5000     63.5745      0.1000      0.4347      0.0500      0.4000      0.0000      0.0500      0.9000           0
SDd             D                   150.0000      0.0000     37.5000     63.5745      0.1000      0.7726      0.0500      0.4000      0.0000      0.0500      0.9000           0
SDd             D                   150.0000      0.0000     37.5000     63.5745      0.1000      0.9449      0.0500      0.4000      0.0000      0.0500      0.9000           0
SDd             D                   150.0000      0.0000     37.5000     63.5745      0.1000      0.9127      0.0500      0.4000      0.0000      0.0500      0.9000           0
SDd             D                   150.0000      0.0000     37.5000     63.5745      0.1000      0.4900      0.0500      0.4000      0.0000      0.0500      0.9000           0
SDd             D                   150.0000      0.0000     37.5000     63.5745      0.1000      0.4901      0.0500      0.4000      0.0000      0.0500      0.9000           0
BEA             C                   800.0000      0.0000    167.5000    326.1500      0.1000      0.9538      0.0500      0.4000      0.0000      0.5000      0.9000           0
BEA             C                   800.0000      0.0000    167.5000    326.1500      0.1000      0.7046      0.0500      0.4000      0.0000      0.5000      0.9000           0
SDd             D                   150.0000      0.0000     37.5000     63.5745      0.1000      0.7224      0.0500      0.4000      0.0000      0.0500      0.9000           0
STR             D                  1000.0000      0.0000    134.5000    185.8970      1.0000      0.4261      0.0500      0.5500      0.9500      0.1000      0.0100           1
STR             D                  1000.0000      0.0000    134.5000    185.8970      0.2000      0.2014      0.0500      0.5500      0.9500      0.1000      0.0100           1
STR             D                  1000.0000      0.0000    134.5000    185.8970      0.2000      0.2087      0.0500      0.5500      0.9500      0.1000      0.0100           1
STR             D                  1000.0000      0.0000    134.5000    185.8970      1.0000      0.2575      0.0500      0.5500      0.9500      0.1000      0.0100           1
STV             D                  1000.0000      0.0000    134.5000    185.8970      0.2000      0.4175      0.0500      0.5500      0.9500      0.1000      0.0100           1
STR             D                  1000.0000      0.0000    134.5000    185.8970      1.0000      0.3191      0.0500      0.5500      0.9500      0.1000      0.0100           1
STV             D                  1000.0000      0.0000    134.5000    185.8970      0.5000      0.5098      0.0500      0.5500      0.9500      0.1000      0.0100           1
STE             D                  1000.0000      0.0000     47.7500     94.8604      1.0000      0.2487      0.0500      0.5500      0.9500      0.1000      0.0100           1
STP             D                  1000.0000      0.0000    125.6321    199.8815      1.0000      0.6312      0.0500      0.5500      0.9500      0.1000      0.0100           1
STP             D                  1000.0000      0.0000    125.6321    199.8815      1.0000      0.8155      0.0500      0.5500      0.9500      0.1000      0.0100           1
STR             D                  1000.0000      0.0000    134.5000    185.8970      1.0000      0.3622      0.0500      0.5500      0.9500      0.1000      0.0100           1
STV             D                  1000.0000      0.0000    134.5000    185.8970      1.0000      0.2163      0.0500      0.5500      0.9500      0.1000      0.0100           1
STV             D                  1000.0000      0.0000    134.5000    185.8970      1.0000      0.2301      0.0500      0.5500      0.9500      0.1000      0.0100           1
STV             D                  1000.0000      0.0000    134.5000    185.8970      0.5000      0.2997      0.0500      0.5500      0.9500      0.1000      0.0100           1
STV             D                  1000.0000      0.0000    134.5000    185.8970      0.5000      0.4333      0.0500      0.5500      0.9500      0.1000      0.0100           1
STV             D                  1000.0000      0.0000    134.5000    185.8970      0.5000      0.9956      0.0500      0.5500      0.9500      0.1000      0.0100           1
SDd             D                   150.0000      0.0000     37.5000     63.5745      0.5000      0.3883      0.0500      0.5500      0.3000      0.0500      0.2000           0
SDd             D                   150.0000      0.0000     37.5000     63.5745      0.1000      0.7824      0.0500      0.4000      0.0000      0.0500      0.9000           0
SDd             D                   150.0000      0.0000     37.5000     63.5745      0.1000      0.5123      0.0500      0.4000      0.0000      0.0500      0.9000           0
SDd             D                   150.0000      0.0000     37.5000     63.5745      0.1000      0.5274      0.0500      0.4000      0.0000      0.0500      0.9000           0
STR             D                  1000.0000      0.0000    134.5000    185.8970      1.0000      0.6729      0.0500      0.5500      0.9500      0.1000      0.0100           1
STR             D                  1000.0000      0.0000    134.5000    185.8970      0.2000      0.2869      0.0500      0.5500      0.9500      0.1000      0.0100           1
STR             D                  1000.0000      0.0000    134.5000    185.8970      1.0000      0.1645      0.0500      0.5500      0.9500      0.1000      0.0100           1
STR             D                  1000.0000      0.0000    134.5000    185.8970      1.0000      0.2637      0.0500      0.5500      0.9500      0.1000      0.0100           1
STR             D                  1000.0000      0.0000    134.5000    185.8970      1.0000      0.5245      0.0500      0.5500      0.9500      0.1000      0.0100           1
SDd             D                   150.0000      0.0000     37.5000     63.5745      0.2000      1.6968      0.0500      0.5500      0.0000      0.0500      0.9000           0
STP             D                  1000.0000      0.0000    125.6321    199.8815      1.0000      1.6371      0.0500      0.5500      0.9500      0.1000      0.0100           1
STP             D                  1000.0000      0.0000    125.6321    199.8815      1.0000      1.9701      0.0500      0.5500      0.9500      0.1000      0.0100           1
STP             D                  1000.0000      0.0000    125.6321    199.8815      1.0000      2.8607      0.0500      0.5500      0.9500      0.1000      0.0100           1
STV             D                  1000.0000      0.0000    134.5000    185.8970      1.0000      1.0516      0.0500      0.5500      0.9500      0.1000      0.0100           1
STV             D                  1000.0000      0.0000    134.5000    185.8970      1.0000      1.2325      0.0500      0.5500      0.9500      0.1000      0.0100           1
STV             D                  1000.0000      0.0000    134.5000    185.8970      1.0000      1.6914      0.0500      0.5500      0.9500      0.1000      0.0100           1
STV             D                  1000.0000      0.0000    134.5000    185.8970      0.5000      0.8571      0.0500      0.5500      0.9500      0.1000      0.0100           1
STV             D                  1000.0000      0.0000    134.5000    185.8970      0.5000      1.1887      0.0500      0.5500      0.9500      0.1000      0.0100           1
SDd             D                   150.0000      0.0000     37.5000     63.5745      0.5000      0.6645      0.0500      0.5500      0.9500      0.1000      0.0100           1
SDd             D                   150.0000      0.0000     37.5000     63.5745      0.5000      0.7113      0.0500      0.5500      0.0000      0.0500      0.9000           0
SDd             D                   150.0000      0.0000     37.5000     63.5745      0.2000      0.6523      0.0500      0.5500      0.0000      0.0500      0.9000           0
SDd             D                   150.0000      0.0000     37.5000     63.5745      0.2000      0.5717      0.0500      0.5500      0.0000      0.0500      0.9000           0
STV             D                  1000.0000      0.0000    134.5000    185.8970      0.5000      1.5172      0.0500      0.5500      0.9500      0.1000      0.0100           1
STR             D                  1000.0000      0.0000    134.5000    185.8970      0.2000      0.7023      0.0500      0.5500      0.9500      0.1000      0.0100           1
STR             D                  1000.0000      0.0000    134.5000    185.8970      1.0000      0.1917      0.0500      0.5500      0.9500      0.1000      0.0100           1
STP             D                  1000.0000      0.0000    125.6321    199.8815      1.0000      0.6360      0.0500      0.5500      0.9500      0.1000      0.0100           1
STP             D                  1000.0000      0.0000    125.6321    199.8815      1.0000      1.7397      0.0500      0.5500      0.9500      0.1000      0.0100           1
STV             D                  1000.0000      0.0000    134.5000    185.8970      1.0000      0.4958      0.0500      0.5500      0.9500      0.1000      0.0100           1
STV             D                  1000.0000      0.0000    134.5000    185.8970      1.0000      0.7678      0.0500      0.5500      0.9500      0.1000      0.0100           1
STV             D                  1000.0000      0.0000    134.5000    185.8970      1.0000      0.8424      0.0500      0.5500      0.9500      0.1000      0.0100           1
STV             D                  1000.0000      0.0000    134.5000    185.8970      0.5000      0.5200      0.0500      0.5500      0.9500      0.1000      0.0100           1
STV             D                  1000.0000      0.0000    134.5000    185.8970      0.5000      0.2905      0.0500      0.5500      0.9500      0.1000      0.0100           1
SDd             D                   150.0000      0.0000     37.5000     63.5745      0.5000      0.4674      0.0500      0.5500      0.0000      0.0500      0.9000           0
Mon             D                   100.0000      0.0000     15.5000     53.7377      1.0000      1.2208      0.0500      0.8000      0.0000      0.0500      0.9000           0
Mon             D                   100.0000      0.0000     15.5000     53.7377      0.1000      4.6065      0.0500      0.4000      0.0000      0.0500      0.9000           0
SDs             C                   800.0000      0.0000    167.5000    326.1500      0.2000      1.6783      0.0500      0.3000      0.0000      0.5000      0.9000           0
SDs             C                   800.0000      0.0000    167.5000    326.1500      0.1000      2.8251      0.0500      0.4000      0.0000      0.0500      0.9000           0
SDd             D                   150.0000      0.0000     37.5000     63.5745      0.1000      1.3642      0.0500      0.4000      0.0000      0.0500      0.9000           0
SDd             D                   150.0000      0.0000     37.5000     63.5745      0.1000      0.1559      0.0500      0.4000      0.9500      0.0500      0.0100           0
SDd             D                   150.0000      0.0000     37.5000     63.5745      0.1000      2.0914      0.0500      0.4000      0.0000      0.0500      0.9000           0
SDd             D                   150.0000      0.0000     37.5000     63.5745      1.0000      2.7981      0.0500      0.8000      0.9500      0.1000      0.9000           1
SDd             D                   150.0000      0.0000     37.5000     63.5745      1.0000      2.9217      0.0500      0.8000      0.9500      0.1000      0.9000           1
SDs             C                   800.0000      0.0000    167.5000    326.1500      0.1000      0.9438      0.0500      0.4000      0.0000      0.5000      0.9000           0
STP             D                  1000.0000      0.0000    125.6321    199.8815      0.2000      2.2311      0.0500      0.3000      0.0000      0.0500      0.9000           0
SDd             D                   150.0000      0.0000     37.5000     63.5745      1.0000      0.9424      0.0500      0.5500      0.0000      0.0500      0.9000           0
SDs             C                   800.0000      0.0000    167.5000    326.1500      1.0000      1.2049      0.0500      0.5500      0.0000      0.5000      0.9000           0
STR             D                  1000.0000      0.0000    134.5000    185.8970      1.0000      3.2404      0.0500      0.5500      0.9500      0.1000      0.0100           1
STP             D                  1000.0000      0.0000    125.6321    199.8815      1.0000      0.8198      0.0500      0.5500      0.9500      0.1000      0.0100           1
STV             D                  1000.0000      0.0000    134.5000    185.8970      1.0000      1.0863      0.0500      0.5500      0.9500      0.1000      0.0100           1
SDs             C                   800.0000      0.0000    167.5000    326.1500      1.0000      0.5131      0.0500      0.8000      0.9500      0.1000      0.2000           1
SDd             D                   150.0000      0.0000     37.5000     63.5745      1.0000      2.9773      0.0500      0.8000      0.9500      0.1000      0.9000           1
SDd             D                   150.0000      0.0000     37.5000     63.5745      0.1000      8.5097      0.0500      0.4000      0.0000      0.0500      0.9000           0
SDd             D                   150.0000      0.0000     37.5000     63.5745      0.1000      2.8994      0.0500      0.4000      0.0000      0.0500      0.9000           0
SDd             D                   150.0000      0.0000     37.5000     63.5745      0.1000      0.0660      0.0500      0.4000      0.9500      0.0500      0.0100           0
STS             C                  1000.0000      0.0000    121.0000    198.6441      0.1000      0.0660      0.0500      0.4000      0.9500      0.5000      0.0100           0
SDd             D                   150.0000      0.0000     37.5000     63.5745      0.1000      0.0706      0.0500      0.4000      0.9500      0.0500      0.0100           0
SDd             D                   150.0000      0.0000     37.5000     63.5745      0.1000     13.8224      0.0500      0.4000      0.0000      0.0500      0.9000           0
SDd             D                   150.0000      0.0000     37.5000     63.5745      0.1000      0.2257      0.0500      0.4000      0.3000      0.0500      0.2000           0
SDd             D                   150.0000      0.0000     37.5000     63.5745      0.1000      0.0660      0.0500      0.4000      0.9500      0.0500      0.0100           0
SDd             D                   150.0000      0.0000     37.5000     63.5745      0.1000      0.0684      0.0500      0.4000      0.9500      0.0500      0.0100           0
SDd             D                   150.0000      0.0000     37.5000     63.5745      0.1000      0.4256      0.0500      0.4000      0.0000      0.0500      0.9000           0
STS             C                  1000.0000      0.0000    121.0000    198.6441      1.0000      0.0660      0.0500      0.5500      0.9500      0.1000      0.0100           1
STS             C                  1000.0000      0.0000    121.0000    198.6441      1.0000      0.0659      0.0500      0.5500      0.9500      0.1000      0.0100           1
SDd             D                   150.0000      0.0000     37.5000     63.5745      0.1000     11.7919      0.0500      0.4000      0.0000      0.0500      0.9000           0
SDd             D                   150.0000      0.0000     37.5000     63.5745      0.2000      8.7000      0.0500      0.3000      0.0000      0.0500      0.9000           0
SDd             D                   150.0000      0.0000     37.5000     63.5745      0.1000     12.7204      0.0500      0.4000      0.0000      0.0500      0.9000           0
SDd             D                   150.0000      0.0000     37.5000     63.5745      1.0000      2.9381      0.0500      0.8000      0.0000      0.0500      0.9000           0
SDd             D                   150.0000      0.0000     37.5000     63.5745      1.0000      1.5426      0.0500      0.8000      0.9500      0.1000      0.9000           1
SDd             D                   150.0000      0.0000     37.5000     63.5745      1.0000      1.2122      0.0500      0.8000      0.9500      0.1000      0.9000           1
SDd             D                   150.0000      0.0000     37.5000     63.5745      0.2000      7.0669      0.0500      0.3000      0.0000      0.0500      0.9000           0
SDd             D                   150.0000      0.0000     37.5000     63.5745      0.1000      5.4238      0.0500      0.4000      0.0000      0.0500      0.9000           0
STP             D                  1000.0000      0.0000    125.6321    199.8815      1.0000      2.6132      0.0500      0.5500      0.9500      0.1000      0.0100           1
STP             D                  1000.0000      0.0000    125.6321    199.8815      0.3000      2.0766      0.0500      0.5500      0.9500      0.1000      0.0100           1
SDd             D                   150.0000      0.0000     37.5000     63.5745      1.0000      5.6372      0.0500      0.8000      0.9500      0.1000      0.9000           1
STV             D                  1000.0000      0.0000    134.5000    185.8970      1.0000      1.4072      0.0500      0.8000      0.9500      0.1000      0.9000           1
SDd             D                   150.0000      0.0000     37.5000     63.5745      1.0000      1.7697      0.0500      0.8000      0.9500      0.1000      0.9000           1
SDd             D                   150.0000      0.0000     37.5000     63.5745      0.1000      9.4524      0.0500      0.4000      0.0000      0.0500      0.9000           0
SDd             D                   150.0000      0.0000     37.5000     63.5745      0.2000      9.5414      0.0500      0.3000      0.0000      0.0500      0.9000           0
SDd             D                   150.0000      0.0000     37.5000     63.5745      0.1000      1.8316      0.0500      0.4000      0.0000      0.0500      0.9000           0
STP             D                  1000.0000      0.0000    125.6321    199.8815      0.3000      1.7866      0.0500      0.5500      0.9500      0.1000      0.0100           1
STP             D                  1000.0000      0.0000    125.6321    199.8815      0.3000      1.0503      0.0500      0.5500      0.9500      0.1000      0.0100           1
LV              C                  1000.0000      0.0000    123.0000    274.9583      0.3000      2.5677      0.0500      0.5500      0.0000      0.0500      0.9000           0
STP             D                  1000.0000      0.0000    125.6321    199.8815      0.3000      3.0000      0.0500      0.5500      0.9500      0.1000      0.0100           1
LV              C                  1000.0000      0.0000    123.0000    274.9583      0.3000      3.1293      0.0500      0.5500      0.0000      0.0500      0.9000           0
SDd             D                   150.0000      0.0000     37.5000     63.5745      1.0000      2.4903      0.0500      0.8000      0.0000      0.0500      0.9000           0
SDd             D                   150.0000      0.0000     37.5000     63.5745      0.1000     10.5353      0.0500      0.3000      0.0000      0.0500      0.9000           0
SDd             D                   150.0000      0.0000     37.5000     63.5745      1.0000      0.5786      0.0500      0.8000      0.9500      0.1000      0.9000           1
SDd             D                   150.0000      0.0000     37.5000     63.5745      0.2000     10.0777      0.0500      0.3000      0.0000      0.0500      0.9000           0
STR             D                  1000.0000      0.0000    134.5000    185.8970      0.3000      1.8061      0.0500      0.5500      0.9500      0.1000      0.0100           1
LV              C                  1000.0000      0.0000    123.0000    274.9583      0.3000      2.6884      0.0500      0.5500      0.0000      0.0500      0.9000           0
STP             D                  1000.0000      0.0000    125.6321    199.8815      0.3000      1.4167      0.0500      0.5500      0.9500      0.1000      0.0100           1
STR             D                  1000.0000      0.0000    134.5000    185.8970      0.3000      1.7706      0.0500      0.5500      0.9500      0.1000      0.0100           1
SDd             D                   150.0000      0.0000     37.5000     63.5745      0.2000      0.8449      0.0500      0.3000      0.0000      0.0500      0.9000           0
LV              C                  1000.0000      0.0000    123.0000    274.9583      0.2000      1.3396      0.0500      0.3000      0.0000      0.5000      0.9000           0
SDd             D                   150.0000      0.0000     37.5000     63.5745      0.1000      5.1116      0.0500      0.4000      0.0000      0.0500      0.9000           0
SDd             D                   150.0000      0.0000     37.5000     63.5745      0.1000      0.1908      0.0500      0.3000      0.9500      0.0500      0.0100           0
SDd             D                   150.0000      0.0000     37.5000     63.5745      0.1000      3.3606      0.0500      0.4000      0.0000      0.0500      0.9000           0
STR             D                  1000.0000      0.0000    134.5000    185.8970      0.3000      1.1232      0.0500      0.5500      0.9500      0.1000      0.0100           1
STR             D                  1000.0000      0.0000    134.5000    185.8970      0.3000      0.3570      0.0500      0.5500      0.9500      0.1000      0.0100           1
STP             D                  1000.0000      0.0000    125.6321    199.8815      0.3000      0.6373      0.0500      0.5500      0.9500      0.1000      0.0100           1
SDd             D                   150.0000      0.0000     37.5000     63.5745      0.1000      3.0962      0.0500      0.3000      0.0000      0.0500      0.9000           0
STV             D                  1000.0000      0.0000    134.5000    185.8970      0.3000      3.6569      0.0500      0.5500      0.9500      0.1000      0.0100           1
SDd             D                   150.0000      0.0000     37.5000     63.5745      0.1000      1.6715      0.0500      0.3000      0.0000      0.0500      0.9000           0
SDd             D                   150.0000      0.0000     37.5000     63.5745      0.1000      8.1960      0.0500      0.3000      0.0000      0.0500      0.9000           0
SDs             C                   800.0000      0.0000    167.5000    326.1500      1.0000      0.6342      0.0500      0.8000      0.3000      0.5000      0.2000           0
LV              C                  1000.0000      0.0000    123.0000    274.9583      0.2000      1.2537      0.0500      0.3000      0.0000      0.5000      0.9000           0
Mon             D                   100.0000      0.0000     15.5000     53.7377      0.2000      2.0872      0.0500      0.3000      0.0000      0.0500      0.9000           0
SDd             D                   150.0000      0.0000     37.5000     63.5745      0.1000     10.7622      0.0500      0.4000      0.0000      0.0500      0.9000           0
LV              C                  1000.0000      0.0000    123.0000    274.9583      1.0000      1.8521      0.0500      0.5500      0.0000      0.0500      0.9000           0
LV              C                  1000.0000      0.0000    123.0000    274.9583      1.0000      1.0247      0.0500      0.5500      0.0000      0.5000      0.9000           0
SDs             C                   800.0000      0.0000    167.5000    326.1500      1.0000      1.1311      0.0500      0.8000      0.9500      0.1000      0.9000           1
Mon             D                   100.0000      0.0000     15.5000     53.7377      1.0000      0.7874      0.0500      0.8000      0.9500      0.1000      0.9000           1
SDd             D                   150.0000      0.0000     37.5000     63.5745      0.1000      9.2628      0.0500      0.4000      0.0000      0.0500      0.9000           0
SDd             D                   150.0000      0.0000     37.5000     63.5745      0.1000      6.6146      0.0500      0.4000      0.0000      0.0500      0.9000           0
SDd             D                   150.0000      0.0000     37.5000     63.5745      0.1000     11.9653      0.0500      0.4000      0.0000      0.0500      0.9000           0
SDd             D                   150.0000      0.0000     37.5000     63.5745      0.1000      9.4828      0.0500      0.4000      0.0000      0.0500      0.9000           0
SDd             D                   150.0000      0.0000     37.5000     63.5745      0.1000      7.2597      0.0500      0.4000      0.0000      0.0500      0.9000           0
SDd             D                   150.0000      0.0000     37.5000     63.5745      0.1000      5.7379      0.0500      0.4000      0.0000      0.0500      0.9000           0
SDd             D                   150.0000      0.0000     37.5000     63.5745      0.1000      5.0114      0.0500      0.4000      0.0000      0.0500      0.9000           0
SDd             D                   150.0000      0.0000     37.5000     63.5745      0.1000      5.3815      0.0500      0.4000      0.0000      0.0500      0.9000           0
SDd             D                   150.0000      0.0000     37.5000     63.5745      0.1000      5.6066      0.0500      0.4000      0.0000      0.0500      0.9000           0
STP             D                  1000.0000      0.0000    125.6321    199.8815      1.0000      0.6422      0.0500      0.5500      0.9500      0.1000      0.0100           1
STL             D                  1000.0000      0.0000     98.7500    329.4727      0.3000      1.9136      0.0500      0.5500      0.9500      0.1000      0.0100           1
STR             D                  1000.0000      0.0000    134.5000    185.8970      0.3000      2.3503      0.0500      0.5500      0.9500      0.1000      0.0100           1
Mon             D                   100.0000      0.0000     15.5000     53.7377      0.1000      2.1101      0.0500      0.4000      0.0000      0.0500      0.9000           0
SDd             D                   150.0000      0.0000     37.5000     63.5745      0.2000      2.4282      0.0500      0.3000      0.0000      0.0500      0.9000           0
Mon             D                   100.0000      0.0000     15.5000     53.7377      0.1000      2.6401      0.0500      0.4000      0.0000      0.0500      0.9000           0
HUM             D                   250.0000      0.0000     87.5000    201.4109      0.1000      4.8216      0.0500      0.4000      0.0000      0.0500      0.9000           0
SDs             C                   800.0000      0.0000    167.5000    326.1500      0.1000      4.1758      0.0500      0.4000      0.0000      0.0500      0.9000           0
SDd             D                   150.0000      0.0000     37.5000     63.5745      1.0000      0.6926      0.0500      0.8000      0.0000      0.0500      0.9000           0
Mon             D                   100.0000      0.0000     15.5000     53.7377      0.1000      2.2003      0.0500      0.4000      0.0000      0.0500      0.9000           0
Mon             D                   100.0000      0.0000     15.5000     53.7377      0.1000      0.5398      0.0500      0.4000      0.0000      0.0500      0.9000           0
SDd             D                   150.0000      0.0000     37.5000     63.5745      0.1000      0.2721      0.0500      0.4000      0.3000      0.0500      0.2000           0
LV              C                  1000.0000      0.0000    123.0000    274.9583      0.2000      0.7153      0.0500      0.3000      0.0000      0.5000      0.9000           0
Mon             D                   100.0000      0.0000     15.5000     53.7377      0.1000      3.4163      0.0500      0.4000      0.0000      0.0500      0.9000           0
SDd             D                   150.0000      0.0000     37.5000     63.5745      0.1000      2.1005      0.0500      0.4000      0.0000      0.0500      0.9000           0
Mon             D                   100.0000      0.0000     15.5000     53.7377      0.1000      5.5318      0.0500      0.4000      0.0000      0.0500      0.9000           0
Mon             D                   100.0000      0.0000     15.5000     53.7377      0.1000      4.3182      0.0500      0.4000      0.0000      0.0500      0.9000           0
HUM             D                   250.0000      0.0000     87.5000    201.4109      0.1000      1.2786      0.0500      0.4000      0.0000      0.0500      0.9000           0
SDd             D                   150.0000      0.0000     37.5000     63.5745      0.1000      0.1460      0.0500      0.4000      0.9500      0.0500      0.0100           0
Mon             D                   100.0000      0.0000     15.5000     53.7377      0.1000      3.3243      0.0500      0.4000      0.0000      0.0500      0.9000           0
Mon             D                   100.0000      0.0000     15.5000     53.7377      0.1000      3.6501      0.0500      0.4000      0.0000      0.0500      0.9000           0
HUM             D                   250.0000      0.0000     87.5000    201.4109      0.1000      4.4700      0.0500      0.4000      0.0000      0.0500      0.9000           0
SDd             D                   150.0000      0.0000     37.5000     63.5745      0.1000      0.5141      0.0500      0.4000      0.0000      0.0500      0.9000           0
SDd             D                   150.0000      0.0000     37.5000     63.5745      0.1000      0.2289      0.0500      0.4000      0.3000      0.0500      0.2000           0
Mon             D                   100.0000      0.0000     15.5000     53.7377      0.1000      2.7346      0.0500      0.4000      0.0000      0.0500      0.9000           0
END             D                   100.0000      0.0000     15.5000     53.7377      0.1000      0.5314      0.0500      0.4000      0.0000      0.0500      0.9000           0
Mon             D                   100.0000      0.0000     15.5000     53.7377      0.1000      3.0751      0.0500      0.4000      0.0000      0.0500      0.9000           0
STV             D                  1000.0000      0.0000    134.5000    185.8970      0.5000      0.4307      0.0500      0.5500      0.9500      0.1000      0.0100           1
HS              D                  1000.0000      0.0000    300.0000    899.8770      0.2000      0.2942      0.0500      0.5500      0.9500      0.1000      0.0100           1
CM1             C                  1000.0000      0.0000    130.7500    371.0863      0.3000      1.0245      0.0500      0.5500      0.0000      0.5000      0.9000           0
PL              C                  1000.0000      0.0000    188.0000    330.8775      0.8500      0.1594      0.0500      0.5500      0.9500      0.1000      0.0100           1
STV             D                  1000.0000      0.0000    134.5000    185.8970      0.8500      0.1318      0.0500      0.5500      0.9500      0.1000      0.0100           1
STV             D                  1000.0000      0.0000    134.5000    185.8970      0.8500      0.6114      0.0500      0.5500      0.9500      0.1000      0.0100           1
STV             D                  1000.0000      0.0000    134.5000    185.8970      0.8500      0.6143      0.0500      0.5500      0.9500      0.1000      0.0100           1
STV             D                  1000.0000      0.0000    134.5000    185.8970      0.5000      0.8364      0.0500      0.5500      0.9500      0.1000      0.0100           1
STV             D                  1000.0000      0.0000    134.5000    185.8970      0.5000      1.0898      0.0500      0.5500      0.9500      0.1000      0.0100           1
STV             D                  1000.0000      0.0000    134.5000    185.8970      0.5000      1.0934      0.0500      0.5500      0.9500      0.1000      0.0100           1
STV             D                  1000.0000      0.0000    134.5000    185.8970      0.5000      1.1424      0.0500      0.5500      0.9500      0.1000      0.0100           1
CM1             C                  1000.0000      0.0000    130.7500    371.0863      1.0000      1.6536      0.0500      0.5500      0.0000      0.5000      0.9000           0
STV             D                  1000.0000      0.0000    134.5000    185.8970      1.0000      0.4083      0.0500      0.8000      0.9500      0.1000      0.9000           1
SDs             C                   800.0000      0.0000    167.5000    326.1500      1.0000      0.3218      0.0500      0.8000      0.9500      0.1000      0.2000           1
CM1             C                  1000.0000      0.0000    130.7500    371.0863      1.0000      0.8566      0.0500      0.8000      0.9500      0.1000      0.9000           1
HUM             D                   250.0000      0.0000     87.5000    201.4109      0.1000      2.4897      0.0500      0.4000      0.0000      0.0500      0.9000           0
SDd             D                   150.0000      0.0000     37.5000     63.5745      0.2000      4.7339      0.0500      0.3000      0.0000      0.0500      0.9000           0
SDd             D                   150.0000      0.0000     37.5000     63.5745      0.1000      3.1435      0.0500      0.4000      0.0000      0.0500      0.9000           0
SDd             D                   150.0000      0.0000     37.5000     63.5745      0.1000      2.6342      0.0500      0.4000      0.0000      0.0500      0.9000           0
SDd             D                   150.0000      0.0000     37.5000     63.5745      0.1000      2.0122      0.0500      0.4000      0.0000      0.0500      0.9000           0
SDd             D                   150.0000      0.0000     37.5000     63.5745      0.1000      3.5276      0.0500      0.4000      0.0000      0.0500      0.9000           0
HS              D                  1000.0000      0.0000    300.0000    899.8770      0.2000      1.1266      0.0500      0.5500      0.9500      0.1000      0.0100           1
SDd             D                   150.0000      0.0000     37.5000     63.5745      0.2000      4.0774      0.0500      0.3000      0.0000      0.0500      0.9000           0
STV             D                  1000.0000      0.0000    134.5000    185.8970      0.5000      0.4813      0.0500      0.5500      0.9500      0.1000      0.0100           1
STV             D                  1000.0000      0.0000    134.5000    185.8970      0.8500      0.1400      0.0500      0.5500      0.9500      0.1000      0.0100           1
STP             D                  1000.0000      0.0000    125.6321    199.8815      0.5000      0.6432      0.0500      0.5500      0.9500      0.1000      0.0100           1
STV             D                  1000.0000      0.0000    134.5000    185.8970      0.5000      0.3709      0.0500      0.5500      0.9500      0.1000      0.0100           1
STV             D                  1000.0000      0.0000    134.5000    185.8970      0.5000      0.3314      0.0500      0.5500      0.9500      0.1000      0.0100           1
STV             D                  1000.0000      0.0000    134.5000    185.8970      0.5000      0.7670      0.0500      0.5500      0.9500      0.1000      0.0100           1
STV             D                  1000.0000      0.0000    134.5000    185.8970      0.5000      0.3323      0.0500      0.5500      0.9500      0.1000      0.0100           1
STV             D                  1000.0000      0.0000    134.5000    185.8970      0.8500      0.3741      0.0500      0.5500      0.9500      0.1000      0.0100           1
STV             D                  1000.0000      0.0000    134.5000    185.8970      0.8500      0.2554      0.0500      0.5500      0.9500      0.1000      0.0100           1
STV             D                  1000.0000      0.0000    134.5000    185.8970      0.8500      0.2736      0.0500      0.5500      0.9500      0.1000      0.0100           1
SDd             D                   150.0000      0.0000     37.5000     63.5745      0.5000      1.1196      0.0500      0.5500      0.9500      0.1000      0.0100           1
STV             D                  1000.0000      0.0000    134.5000    185.8970      0.5000      0.2926      0.0500      0.5500      0.9500      0.1000      0.0100           1
HS              D                  1000.0000      0.0000    300.0000    899.8770      0.5000      0.2583      0.0500      0.5500      0.9500      0.1000      0.0100           1
GLC             C                  1000.0000      0.0000    181.5000    272.9636      0.5000      0.7987      0.0500      0.5500      0.9500      0.1000      0.0100           1
STV             D                  1000.0000      0.0000    134.5000    185.8970      0.5000      0.3294      0.0500      0.5500      0.9500      0.1000      0.0100           1
STV             D                  1000.0000      0.0000    134.5000    185.8970      0.5000      0.1350      0.0500      0.5500      0.9500      0.1000      0.0100           1
STV             D                  1000.0000      0.0000    134.5000    185.8970      0.5000      0.7241      0.0500      0.5500      0.9500      0.1000      0.0100           1
SDd             D                   150.0000      0.0000     37.5000     63.5745      0.5000      0.7010      0.0500      0.5500      0.9500      0.1000      0.0100           1
HS              D                  1000.0000      0.0000    300.0000    899.8770      0.5000      0.8611      0.0500      0.5500      0.9500      0.1000      0.0100           1
GLC             C                  1000.0000      0.0000    181.5000    272.9636      0.5000      0.8038      0.0500      0.5500      0.9500      0.1000      0.0100           1
STV             D                  1000.0000      0.0000    134.5000    185.8970      0.5000      0.7593      0.0500      0.5500      0.9500      0.1000      0.0100           1
STV             D                  1000.0000      0.0000    134.5000    185.8970      0.5000      0.4307      0.0500      0.5500      0.9500      0.1000      0.0100           1
STV             D                  1000.0000      0.0000    134.5000    185.8970      0.5000      0.2588      0.0500      0.5500      0.9500      0.1000      0.0100           1
STV             D                  1000.0000      0.0000    134.5000    185.8970      0.5000      0.6904      0.0500      0.5500      0.9500      0.1000      0.0100           1
STV             D                  1000.0000      0.0000    134.5000    185.8970      0.5000      0.1755      0.0500      0.5500      0.9500      0.1000      0.0100           1
SDs             C                   800.0000      0.0000    167.5000    326.1500      0.1000      1.7212      0.0500      0.4000      0.0000      0.5000      0.9000           0
SDd             D                   150.0000      0.0000     37.5000     63.5745      0.1000      1.6362      0.0500      0.4000      0.0000      0.0500      0.9000           0
SDd             D                   150.0000      0.0000     37.5000     63.5745      0.1000      3.0321      0.0500      0.4000      0.0000      0.0500      0.9000           0
SDd             D                   150.0000      0.0000     37.5000     63.5745      0.2000      1.8894      0.0500      0.3000      0.0000      0.0500      0.9000           0
SDd             D                   150.0000      0.0000     37.5000     63.5745      0.1000      2.1104      0.0500      0.4000      0.0000      0.0500      0.9000           0
SDd             D                   150.0000      0.0000     37.5000     63.5745      0.1000      4.4619      0.0500      0.4000      0.0000      0.0500      0.9000           0
SDd             D                   150.0000      0.0000     37.5000     63.5745      0.1000      6.5615      0.0500      0.4000      0.0000      0.0500      0.9000           0
STR             D                  1000.0000      0.0000    134.5000    185.8970      1.0000      0.5021      0.0500      0.8000      0.9500      0.1000      0.9000           1
SDd             D                   150.0000      0.0000     37.5000     63.5745      1.0000      0.4463      0.0500      0.8000      0.9500      0.1000      0.9000           1
STR             D                  1000.0000      0.0000    134.5000    185.8970      0.2000      1.0943      0.0500      0.3000      0.0000      0.0500      0.9000           0
SDd             D                   150.0000      0.0000     37.5000     63.5745      0.2000      1.3183      0.0500      0.3000      0.0000      0.0500      0.9000           0
SDd             D                   150.0000      0.0000     37.5000     63.5745      1.0000      0.0662      0.0500      0.8000      0.9500      0.1000      0.0100           1
SDd             D                   150.0000      0.0000     37.5000     63.5745      1.0000      0.0663      0.0500      0.8000      0.9500      0.0500      0.0100           0
SDd             D                   150.0000      0.0000     37.5000     63.5745      0.2000      0.0661      0.0500      0.3000      0.9500      0.0500      0.0100           0
SDd             D                   150.0000      0.0000     37.5000     63.5745      0.2000      0.0660      0.0500      0.3000      0.9500      0.0500      0.0100           0
STR             D                  1000.0000      0.0000    134.5000    185.8970      0.2000      0.0660      0.0500      0.3000      0.9500      0.0500      0.0100           0
SDd             D                   150.0000      0.0000     37.5000     63.5745      0.2000      0.0660      0.0500      0.3000      0.9500      0.0500      0.0100           0
SDd             D                   150.0000      0.0000     37.5000     63.5745      0.2000      0.0660      0.0500      0.3000      0.9500      0.0500      0.0100           0
STR             D                  1000.0000      0.0000    134.5000    185.8970      0.2000      0.0660      0.0500      0.3000      0.9500      0.0500      0.0100           0
STR             D                  1000.0000      0.0000    134.5000    185.8970      0.2000      0.0659      0.0500      0.3000      0.9500      0.0500      0.0100           0
SDd             D                   150.0000      0.0000     37.5000     63.5745      0.2000      0.0660      0.0500      0.3000      0.9500      0.0500      0.0100           0
STR             D                  1000.0000      0.0000    134.5000    185.8970      1.0000      0.4572      0.0500      0.5500      0.9500      0.1000      0.0100           1
STR             D                  1000.0000      0.0000    134.5000    185.8970      1.0000      1.0393      0.0500      0.5500      0.9500      0.1000      0.0100           1
STR             D                  1000.0000      0.0000    134.5000    185.8970      1.0000      0.2378      0.0500      0.5500      0.9500      0.1000      0.0100           1
STR             D                  1000.0000      0.0000    134.5000    185.8970      1.0000      0.1689      0.0500      0.5500      0.9500      0.1000      0.0100           1
STR             D                  1000.0000      0.0000    134.5000    185.8970      1.0000      0.1030      0.0500      0.5500      0.9500      0.1000      0.0100           1
STR             D                  1000.0000      0.0000    134.5000    185.8970      1.0000      0.0670      0.0500      0.5500      0.9500      0.1000      0.0100           1
STR             D                  1000.0000      0.0000    134.5000    185.8970      1.0000      0.0825      0.0500      0.5500      0.9500      0.1000      0.0100           1
STV             D                  1000.0000      0.0000    134.5000    185.8970      1.0000      0.0661      0.0500      0.5500      0.9500      0.1000      0.0100           1
STR             D                  1000.0000      0.0000    134.5000    185.8970      1.0000      0.1056      0.0500      0.5500      0.9500      0.1000      0.0100           1
STR             D                  1000.0000      0.0000    134.5000    185.8970      1.0000      0.0659      0.0500      0.5500      0.9500      0.1000      0.0100           1
STV             D                  1000.0000      0.0000    134.5000    185.8970      1.0000      0.0660      0.0500      0.5500      0.9500      0.1000      0.0100           1
SDd             D                   150.0000      0.0000     37.5000     63.5745      1.0000      0.5876      0.0500      0.8000      0.0000      0.0500      0.9000           0
STR             D                  1000.0000      0.0000    134.5000    185.8970      1.0000      1.8423      0.0500      0.8000      0.9500      0.1000      0.9000           1
STR             D                  1000.0000      0.0000    134.5000    185.8970      0.2000      1.2824      0.0500      0.3000      0.0000      0.0500      0.9000           0
SDd             D                   150.0000      0.0000     37.5000     63.5745      0.1000      2.9498      0.0500      0.4000      0.0000      0.0500      0.9000           0
SDd             D                   150.0000      0.0000     37.5000     63.5745      0.1000      5.6143      0.0500      0.4000      0.0000      0.0500      0.9000           0
STR             D                  1000.0000      0.0000    134.5000    185.8970      1.0000      1.9342      0.0500      0.8000      0.9500      0.1000      0.9000           1
STR             D                  1000.0000      0.0000    134.5000    185.8970      1.0000      1.0708      0.0500      0.5500      0.9500      0.1000      0.0100           1
STR             D                  1000.0000      0.0000    134.5000    185.8970      1.0000      0.8533      0.0500      0.5500      0.9500      0.1000      0.0100           1
STR             D                  1000.0000      0.0000    134.5000    185.8970      1.0000      1.1413      0.0500      0.5500      0.9500      0.1000      0.0100           1
STR             D                  1000.0000      0.0000    134.5000    185.8970      1.0000      0.8519      0.0500      0.8000      0.9500      0.1000      0.9000           1
STV             D                  1000.0000      0.0000    134.5000    185.8970      1.0000      0.9669      0.0500      0.8000      0.9500      0.1000      0.9000           1
SDd             D                   150.0000      0.0000     37.5000     63.5745      1.0000      1.2883      0.0500      0.8000      0.9500      0.1000      0.9000           1
STR             D                  1000.0000      0.0000    134.5000    185.8970      1.0000      0.3859      0.0500      0.8000      0.9500      0.1000      0.2000           1
STR             D                  1000.0000      0.0000    134.5000    185.8970      0.2000      0.4086      0.0500      0.3000      0.0000      0.0500      0.9000           0
STV             D                  1000.0000      0.0000    134.5000    185.8970      0.2000      1.9276      0.0500      0.3000      0.0000      0.0500      0.9000           0
CM2             D                  1000.0000      0.0000    107.0000    150.6253      0.2000      2.2982      0.0500      0.3000      0.0000      0.0500      0.9000           0
STR             D                  1000.0000      0.0000    134.5000    185.8970      0.2000      0.4641      0.0500      0.3000      0.0000      0.0500      0.9000           0
GLU             C                  1000.0000      0.0000    187.0000    343.4109      0.2000      7.2444      0.0500      0.3000      0.0000      0.0500      0.9000           0
SDd             D                   150.0000      0.0000     37.5000     63.5745      0.2000      6.6733      0.0500      0.3000      0.0000      0.0500      0.9000           0
SDd             D                   150.0000      0.0000     37.5000     63.5745      1.0000     14.0155      0.0500      0.8000      0.9500      0.1000      0.9000           1
SDd             D                   150.0000      0.0000     37.5000     63.5745      0.1000      0.3211      0.0500      0.4000      0.3000      0.0500      0.2000           0
SDd             D                   150.0000      0.0000     37.5000     63.5745      0.2000      3.9666      0.0500      0.3000      0.0000      0.0500      0.9000           0
SDd             D                   150.0000      0.0000     37.5000     63.5745      0.1000      5.0848      0.0500      0.4000      0.0000      0.0500      0.9000           0
SDd             D                   150.0000      0.0000     37.5000     63.5745      0.1000      7.0014      0.0500      0.4000      0.0000      0.0500      0.9000           0
SDd             D                   150.0000      0.0000     37.5000     63.5745      0.2000      0.1972      0.0500      0.3000      0.9500      0.0500      0.0100           0
SDd             D                   150.0000      0.0000     37.5000     63.5745      0.2000      6.2640      0.0500      0.3000      0.0000      0.0500      0.9000           0
GLU             C                  1000.0000      0.0000    187.0000    343.4109      0.2000      6.6419      0.0500      0.3000      0.0000      0.0500      0.9000           0
SDd             D                   150.0000      0.0000     37.5000     63.5745      0.2000      8.0813      0.0500      0.3000      0.0000      0.0500      0.9000           0
SDd             D                   150.0000      0.0000     37.5000     63.5745      0.2000      4.1864      0.0500      0.3000      0.0000      0.0500      0.9000           0
SDd             D                   150.0000      0.0000     37.5000     63.5745      0.2000      4.9705      0.0500      0.3000      0.0000      0.0500      0.9000           0
SDd             D                   150.0000      0.0000     37.5000     63.5745      0.2000      0.0660      0.0500      0.3000      0.9500      0.0500      0.0100           0
STV             D                  1000.0000      0.0000    134.5000    185.8970      1.0000      2.1442      0.0500      0.5500      0.9500      0.1000      0.0100           1
LV              C                  1000.0000      0.0000    123.0000    274.9583      1.0000      0.7015      0.0500      0.5500      0.0000      0.5000      0.9000           0
STP             D                  1000.0000      0.0000    125.6321    199.8815      1.0000      0.8057      0.0500      0.5500      0.9500      0.1000      0.0100           1
STL             D                  1000.0000      0.0000     98.7500    329.4727      1.0000      0.0750      0.0500      0.5500      0.9500      0.1000      0.0100           1
STL             D                  1000.0000      0.0000     98.7500    329.4727      1.0000      0.1192      0.0500      0.5500      0.9500      0.1000      0.0100           1
GLU             C                  1000.0000      0.0000    187.0000    343.4109      1.0000      0.6511      0.0500      0.5500      0.9500      0.1000      0.0100           1
GLU             C                  1000.0000      0.0000    187.0000    343.4109      1.0000      0.4022      0.0500      0.5500      0.9500      0.1000      0.0100           1
GLU             C                  1000.0000      0.0000    187.0000    343.4109      1.0000      0.0892      0.0500      0.5500      0.9500      0.1000      0.0100           1
STL             D                  1000.0000      0.0000     98.7500    329.4727      1.0000      0.0660      0.0500      0.5500      0.9500      0.1000      0.0100           1
GLU             C                  1000.0000      0.0000    187.0000    343.4109      1.0000      0.2632      0.0500      0.5500      0.9500      0.1000      0.0100           1
SDd             D                   150.0000      0.0000     37.5000     63.5745      0.1000      3.7009      0.0500      0.4000      0.0000      0.0500      0.9000           0
SDd             D                   150.0000      0.0000     37.5000     63.5745      0.1000      7.5033      0.0500      0.3000      0.0000      0.0500      0.9000           0
SDd             D                   150.0000      0.0000     37.5000     63.5745      0.1000      5.1916      0.0500      0.4000      0.0000      0.0500      0.9000           0
SDd             D                   150.0000      0.0000     37.5000     63.5745      0.1000      3.3069      0.0500      0.3000      0.0000      0.0500      0.9000           0
SDs             C                   800.0000      0.0000    167.5000    326.1500      0.1000      3.1088      0.0500      0.4000      0.0000      0.0500      0.9000           0
Mon             D                   100.0000      0.0000     15.5000     53.7377      1.0000      1.6285      0.0500      0.8000      0.0000      0.0500      0.9000           0
STR             D                  1000.0000      0.0000    134.5000    185.8970      0.3000      0.8647      0.0500      0.5500      0.9500      0.1000      0.0100           1
STV             D                  1000.0000      0.0000    134.5000    185.8970      0.3000      0.5047      0.0500      0.5500      0.9500      0.1000      0.0100           1
[...]
STV             D                  1000.0000      0.0000    134.5000    185.8970      1.0000      1.3210      0.0500      0.8000      0.9500      0.1000      0.9000           1
SDs             C                   800.0000      0.0000    167.5000    326.1500      0.2000      0.8173      0.0500      0.3000      0.0000      0.5000      0.9000           0
SDd             D                   150.0000      0.0000     37.5000     63.5745      0.2000      9.0407      0.0500      0.3000      0.0000      0.0500      0.9000           0
SDd             D                   150.0000      0.0000     37.5000     63.5745      0.2000     10.4551      0.0500      0.3000      0.0000      0.0500      0.9000           0
SDs             C                   800.0000      0.0000    167.5000    326.1500      0.1000      2.0784      0.0500      0.4000      0.0000      0.0500      0.9000           0
SDd             D                   150.0000      0.0000     37.5000     63.5745      0.1000     10.1632      0.0500      0.4000      0.0000      0.0500      0.9000           0
STR             D                  1000.0000      0.0000    134.5000    185.8970      0.2000      5.4708      0.0500      0.3000      0.0000      0.0500      0.9000           0
SDs             C                   800.0000      0.0000    167.5000    326.1500      0.1000      3.7283      0.0500      0.4000      0.0000      0.0500      0.9000           0
SDs             C                   800.0000      0.0000    167.5000    326.1500      0.1000      1.4710      0.0500      0.4000      0.0000      0.5000      0.9000           0
PZ              C                  1000.0000      0.0000    131.0000    372.9292      0.2000      0.8578      0.0500      0.3000      0.0000      0.5000      0.9000           0
SDs             C                   800.0000      0.0000    167.5000    326.1500      1.0000      1.3296      0.0500      0.8000      0.0000      0.5000      0.9000           0
STR             D                  1000.0000      0.0000    134.5000    185.8970      1.0000      0.6483      0.0500      0.5500      0.9500      0.1000      0.0100           1
STR             D                  1000.0000      0.0000    134.5000    185.8970      1.0000      1.0779      0.0500      0.5500      0.9500      0.1000      0.0100           1
STV             D                  1000.0000      0.0000    134.5000    185.8970      1.0000      1.0996      0.0500      0.5500      0.9500      0.1000      0.0100           1
STV             D                  1000.0000      0.0000    134.5000    185.8970      1.0000      1.0784      0.0500      0.5500      0.9500      0.1000      0.0100           1
STR             D                  1000.0000      0.0000    134.5000    185.8970      1.0000      0.4424      0.0500      0.5500      0.9500      0.1000      0.0100           1
CM2             D                  1000.0000      0.0000    107.0000    150.6253      0.7000      1.2927      0.0500      0.5500      0.0000      0.0500      0.9000           0
STR             D                  1000.0000      0.0000    134.5000    185.8970      0.5000      0.7818      0.0500      0.5500      0.9500      0.1000      0.0100           1
STS             C                  1000.0000      0.0000    121.0000    198.6441      0.5000      1.3261      0.0500      0.5500      0.9500      0.1000      0.0100           1
CM2             D                  1000.0000      0.0000    107.0000    150.6253      1.0000      2.2919      0.0500      0.5500      0.0000      0.0500      0.9000           0
STR             D                  1000.0000      0.0000    134.5000    185.8970      0.3000      0.9388      0.0500      0.5500      0.9500      0.1000      0.0100           1
LV              C                  1000.0000      0.0000    123.0000    274.9583      1.0000      0.8631      0.0500      0.5500      0.0000      0.5000      0.9000           0
STV             D                  1000.0000      0.0000    134.5000    185.8970      1.0000      0.4771      0.0500      0.8000      0.9500      0.1000      0.9000           1
STV             D                  1000.0000      0.0000    134.5000    185.8970      1.0000      0.3163      0.0500      0.8000      0.9500      0.1000      0.2000           1
STV             D                  1000.0000      0.0000    134.5000    185.8970      1.0000      0.4706      0.0500      0.8000      0.9500      0.1000      0.9000           1
SDd             D                   150.0000      0.0000     37.5000     63.5745      1.0000      0.5333      0.0500      0.8000      0.9500      0.1000      0.9000           1
STR             D                  1000.0000      0.0000    134.5000    185.8970      1.0000      0.8349      0.0500      0.8000      0.9500      0.1000      0.9000           1
SDd             D                   150.0000      0.0000     37.5000     63.5745      1.0000      0.8325      0.0500      0.8000      0.9500      0.1000      0.9000           1
STV             D                  1000.0000      0.0000    134.5000    185.8970      0.2000      2.7366      0.0500      0.3000      0.0000      0.0500      0.9000           0
LV              C                  1000.0000      0.0000    123.0000    274.9583      0.2000      1.3349      0.0500      0.3000      0.0000      0.5000      0.9000           0
LV              C                  1000.0000      0.0000    123.0000    274.9583      0.2000      1.0846      0.0500      0.3000      0.0000      0.5000      0.9000           0
STV             D                  1000.0000      0.0000    134.5000    185.8970      0.2000      0.9293      0.0500      0.3000      0.0000      0.0500      0.9000           0
STV             D                  1000.0000      0.0000    134.5000    185.8970      0.2000      0.2776      0.0500      0.3000      0.3000      0.0500      0.2000           0
STV             D                  1000.0000      0.0000    134.5000    185.8970      0.2000      0.6284      0.0500      0.3000      0.0000      0.0500      0.9000           0
SDd             D                   150.0000      0.0000     37.5000     63.5745      1.0000      0.6557      0.0500      0.8000      0.9500      0.1000      0.9000           1
STV             D                  1000.0000      0.0000    134.5000    185.8970      1.0000      0.4189      0.0500      0.5500      0.9500      0.1000      0.0100           1
STV             D                  1000.0000      0.0000    134.5000    185.8970      1.0000      1.0632      0.0500      0.5500      0.9500      0.1000      0.0100           1
STV             D                  1000.0000      0.0000    134.5000    185.8970      1.0000      0.2995      0.0500      0.5500      0.9500      0.1000      0.0100           1
STV             D                  1000.0000      0.0000    134.5000    185.8970      1.0000      0.2881      0.0500      0.5500      0.9500      0.1000      0.0100           1
LV              C                  1000.0000      0.0000    123.0000    274.9583      0.5000      0.0987      0.0500      0.5500      0.9500      0.5000      0.0100           0
STV             D                  1000.0000      0.0000    134.5000    185.8970      0.2000      0.1301      0.0500      0.5500      0.9500      0.1000      0.0100           1
STV             D                  1000.0000      0.0000    134.5000    185.8970      1.0000      0.1727      0.0500      0.5500      0.9500      0.1000      0.0100           1
STV             D                  1000.0000      0.0000    134.5000    185.8970      1.0000      0.1003      0.0500      0.5500      0.9500      0.1000      0.0100           1
SDd             D                   150.0000      0.0000     37.5000     63.5745      0.1000      0.8086      0.0500      0.4000      0.0000      0.0500      0.9000           0
BEA             C                   800.0000      0.0000    167.5000    326.1500      0.2000      0.6423      0.0500      0.3000      0.3000      0.5000      0.2000           0
STR             D                  1000.0000      0.0000    134.5000    185.8970      0.2000      0.6254      0.0500      0.3000      0.0000      0.0500      0.9000           0
BEA             C                   800.0000      0.0000    167.5000    326.1500      0.1000      0.8669      0.0500      0.4000      0.0000      0.5000      0.9000           0
STR             D                  1000.0000      0.0000    134.5000    185.8970      0.1000      0.9281      0.0500      0.4000      0.0000      0.0500      0.9000           0
STR             D                  1000.0000      0.0000    134.5000    185.8970      1.0000      0.3211      0.0500      0.5500      0.9500      0.1000      0.0100           1
CM1             C                  1000.0000      0.0000    130.7500    371.0863      1.0000      0.6875      0.0500      0.5500      0.0000      0.5000      0.9000           0
CM1             C                  1000.0000      0.0000    130.7500    371.0863      1.0000      0.3205      0.0500      0.5500      0.3000      0.5000      0.2000           0
BEA             C                   800.0000      0.0000    167.5000    326.1500      1.0000      0.7813      0.0500      0.8000      0.9500      0.1000      0.9000           1
BEA             C                   800.0000      0.0000    167.5000    326.1500      1.0000      0.4463      0.0500      0.8000      0.9500      0.1000      0.2000           1
SDd             D                   150.0000      0.0000     37.5000     63.5745      0.1000      0.8943      0.0500      0.4000      0.0000      0.0500      0.9000           0
BEA             C                   800.0000      0.0000    167.5000    326.1500      0.2000      1.3765      0.0500      0.3000      0.0000      0.5000      0.9000           0
BEA             C                   800.0000      0.0000    167.5000    326.1500      1.0000      0.6972      0.0500      0.5500      0.9500      0.1000      0.0100           1
BEA             C                   800.0000      0.0000    167.5000    326.1500      0.2000      0.9822      0.0500      0.3000      0.0000      0.5000      0.9000           0
BEA             C                   800.0000      0.0000    167.5000    326.1500      0.2000      0.5216      0.0500      0.3000      0.3000      0.5000      0.2000           0
BEA             C                   800.0000      0.0000    167.5000    326.1500      0.2000      1.0803      0.0500      0.3000      0.0000      0.5000      0.9000           0
STV             D                  1000.0000      0.0000    134.5000    185.8970      1.0000      0.1279      0.0500      0.5500      0.9500      0.1000      0.0100           1
STR             D                  1000.0000      0.0000    134.5000    185.8970      1.0000      0.3151      0.0500      0.5500      0.9500      0.1000      0.0100           1
BEA             C                   800.0000      0.0000    167.5000    326.1500      1.0000      2.8139      0.0500      0.8000      0.0000      0.0500      0.9000           0
SDd             D                   150.0000      0.0000     37.5000     63.5745      0.1000      0.9326      0.0500      0.4000      0.0000      0.0500      0.9000           0
BEA             C                   800.0000      0.0000    167.5000    326.1500      1.0000      0.4559      0.0500      0.8000      0.9500      0.1000      0.2000           1
BEA             C                   800.0000      0.0000    167.5000    326.1500      0.1000      0.7272      0.0500      0.4000      0.0000      0.5000      0.9000           0
STR             D                  1000.0000      0.0000    134.5000    185.8970      1.0000      0.3008      0.0500      0.5500      0.9500      0.1000      0.0100           1
STR             D                  1000.0000      0.0000    134.5000    185.8970      1.0000      0.3304      0.0500      0.5500      0.9500      0.1000      0.0100           1
STV             D                  1000.0000      0.0000    134.5000    185.8970      1.0000      0.6579      0.0500      0.5500      0.9500      0.1000      0.0100           1
STV             D                  1000.0000      0.0000    134.5000    185.8970      1.0000      0.5098      0.0500      0.5500      0.9500      0.1000      0.0100           1
STR             D                  1000.0000      0.0000    134.5000    185.8970      1.0000      0.4549      0.0500      0.5500      0.9500      0.1000      0.0100           1
STR             D                  1000.0000      0.0000    134.5000    185.8970      1.0000      0.7774      0.0500      0.5500      0.9500      0.1000      0.0100           1
STR             D                  1000.0000      0.0000    134.5000    185.8970      1.0000      0.2992      0.0500      0.5500      0.9500      0.1000      0.0100           1
BEA             C                   800.0000      0.0000    167.5000    326.1500      1.0000      1.1522      0.0500      0.8000      0.9500      0.1000      0.9000           1
STV             D                  1000.0000      0.0000    134.5000    185.8970      1.0000      0.6751      0.0500      0.8000      0.9500      0.1000      0.9000           1
BEA             C                   800.0000      0.0000    167.5000    326.1500      0.2000      0.5175      0.0500      0.3000      0.3000      0.5000      0.2000           0
BEA             C                   800.0000      0.0000    167.5000    326.1500      0.2000      2.1442      0.0500      0.3000      0.0000      0.0500      0.9000           0
BEA             C                   800.0000      0.0000    167.5000    326.1500      0.1000      0.5167      0.0500      0.4000      0.3000      0.5000      0.2000           0
BEA             C                   800.0000      0.0000    167.5000    326.1500      0.1000      1.0775      0.0500      0.4000      0.0000      0.5000      0.9000           0
SDd             D                   150.0000      0.0000     37.5000     63.5745      0.1000      0.4569      0.0500      0.4000      0.0000      0.0500      0.9000           0
BEA             C                   800.0000      0.0000    167.5000    326.1500      0.1000      0.5231      0.0500      0.4000      0.3000      0.5000      0.2000           0
BEA             C                   800.0000      0.0000    167.5000    326.1500      0.1000      1.0939      0.0500      0.4000      0.0000      0.5000      0.9000           0
STR             D                  1000.0000      0.0000    134.5000    185.8970      1.0000      0.2508      0.0500      0.5500      0.9500      0.1000      0.0100           1
STV             D                  1000.0000      0.0000    134.5000    185.8970      1.0000      0.3820      0.0500      0.5500      0.9500      0.1000      0.0100           1
STV             D                  1000.0000      0.0000    134.5000    185.8970      1.0000      0.4383      0.0500      0.5500      0.9500      0.1000      0.0100           1
STR             D                  1000.0000      0.0000    134.5000    185.8970      1.0000      0.5421      0.0500      0.5500      0.9500      0.1000      0.0100           1
STV             D                  1000.0000      0.0000    134.5000    185.8970      1.0000      0.6569      0.0500      0.5500      0.9500      0.1000      0.0100           1
STR             D                  1000.0000      0.0000    134.5000    185.8970      1.0000      0.4215      0.0500      0.5500      0.9500      0.1000      0.0100           1
BEA             C                   800.0000      0.0000    167.5000    326.1500      1.0000      0.3666      0.0500      0.5500      0.9500      0.1000      0.0100           1
BEA             C                   800.0000      0.0000    167.5000    326.1500      1.0000      0.3131      0.0500      0.5500      0.9500      0.1000      0.0100           1
STV             D                  1000.0000      0.0000    134.5000    185.8970      1.0000      0.2280      0.0500      0.5500      0.9500      0.1000      0.0100           1
STR             D                  1000.0000      0.0000    134.5000    185.8970      1.0000      0.2175      0.0500      0.5500      0.9500      0.1000      0.0100           1
STV             D                  1000.0000      0.0000    134.5000    185.8970      0.2000      0.8867      0.0500      0.3000      0.0000      0.0500      0.9000           0
BEA             C                   800.0000      0.0000    167.5000    326.1500      1.0000      1.2627      0.0500      0.8000      0.0000      0.5000      0.9000           0
BEA             C                   800.0000      0.0000    167.5000    326.1500      0.2000      1.1030      0.0500      0.3000      0.0000      0.5000      0.9000           0
STR             D                  1000.0000      0.0000    134.5000    185.8970      0.3000      0.3242      0.0500      0.5500      0.9500      0.1000      0.0100           1
STR             D                  1000.0000      0.0000    134.5000    185.8970      0.7000      0.2410      0.0500      0.5500      0.9500      0.1000      0.0100           1
STV             D                  1000.0000      0.0000    134.5000    185.8970      1.0000      0.4071      0.0500      0.5500      0.0000      0.0500      0.9000           0
STR             D                  1000.0000      0.0000    134.5000    185.8970      1.0000      0.5930      0.0500      0.5500      0.9500      0.1000      0.0100           1
STR             D                  1000.0000      0.0000    134.5000    185.8970      0.2000      0.5694      0.0500      0.3000      0.0000      0.0500      0.9000           0
BEA             C                   800.0000      0.0000    167.5000    326.1500      0.1000      0.6271      0.0500      0.4000      0.3000      0.5000      0.2000           0
STR             D                  1000.0000      0.0000    134.5000    185.8970      0.7000      0.1944      0.0500      0.5500      0.9500      0.1000      0.0100           1
STV             D                  1000.0000      0.0000    134.5000    185.8970      1.0000      0.2168      0.0500      0.5500      0.9500      0.1000      0.0100           1
STV             D                  1000.0000      0.0000    134.5000    185.8970      1.0000      0.9990      0.0500      0.5500      0.9500      0.1000      0.0100           1
STR             D                  1000.0000      0.0000    134.5000    185.8970      1.0000      0.3185      0.0500      0.5500      0.9500      0.1000      0.0100           1
BEA             C                   800.0000      0.0000    167.5000    326.1500      0.2000      1.2341      0.0500      0.3000      0.0000      0.5000      0.9000           0
SDd             D                   150.0000      0.0000     37.5000     63.5745      0.1000      2.7540      0.0500      0.4000      0.0000      0.0500      0.9000           0
BEA             C                   800.0000      0.0000    167.5000    326.1500      1.0000      1.5639      0.0500      0.8000      0.9500      0.1000      0.9000           1
BEA             C                   800.0000      0.0000    167.5000    326.1500      1.0000      1.7154      0.0500      0.8000      0.0000      0.5000      0.9000           0
STV             D                  1000.0000      0.0000    134.5000    185.8970      1.0000      0.4264      0.0500      0.5500      0.9500      0.1000      0.0100           1
STV             D                  1000.0000      0.0000    134.5000    185.8970      1.0000      0.3934      0.0500      0.5500      0.9500      0.1000      0.0100           1
BEA             C                   800.0000      0.0000    167.5000    326.1500      1.0000      1.2970      0.0500      0.8000      0.9500      0.1000      0.9000           1
STV             D                  1000.0000      0.0000    134.5000    185.8970      1.0000      0.3420      0.0500      0.5500      0.9500      0.1000      0.0100           1
