 test_CS9_final_v3         SWAT+ Jan 11 2024        MODULAR Rev 2024.61.0                                 
                                        zmx       usle_k       sumfc       sumul      usle_p     usle_ls        esco        epco     cn3_swf       perco     latq_co   tiledrain 
 sname           hydgrp                 (mm)                    (mm)        (mm)                                                                                     0=notile;1=tile;
RCH1            C                   950.0000      0.0000    135.0065    282.3131      1.0000      8.5938      1.0000      1.0000      0.9302      0.9151      0.0259           0
RCH1            C                   950.0000      0.0000    135.0065    282.3131      0.0120      1.9740      1.0000      1.0000      0.9302      0.9151      0.0259           0
RCH1            C                   950.0000      0.0000    135.0065    282.3131      0.0120      1.1871      1.0000      1.0000      0.9302      0.9151      0.0259           0
RCH1            C                   950.0000      0.0000    135.0065    282.3131      0.0120     10.5469      1.0000      1.0000      0.9302      0.9151      0.0259           0
RCH1            C                   950.0000      0.0000    135.0065    282.3131      0.0120      2.8335      1.0000      1.0000      0.9302      0.9151      0.0259           0
RCH1            C                   950.0000      0.0000    135.0065    282.3131      0.0120      2.5476      1.0000      1.0000      0.9302      0.9151      0.0259           0
RCH1            C                   950.0000      0.0000    135.0065    282.3131      0.0120      6.4292      1.0000      1.0000      0.9302      0.9151      0.0259           0
RCH1            C                   950.0000      0.0000    135.0065    282.3131      0.0120      0.3341      1.0000      1.0000      0.9302      0.9151      0.0259           0
RCH1            C                   950.0000      0.0000    135.0065    282.3131      0.0120      0.6532      1.0000      1.0000      0.9302      0.9151      0.0259           0
RCH1            C                   950.0000      0.0000    135.0065    282.3131      0.0120      0.6901      1.0000      1.0000      0.9302      0.9151      0.0259           0
RCH1            C                   950.0000      0.0000    135.0065    282.3131      0.0120      8.2335      1.0000      1.0000      0.9302      0.9151      0.0259           0
RCH1            C                   950.0000      0.0000    135.0065    282.3131      0.0120      8.9221      1.0000      1.0000      0.9302      0.9151      0.0259           0
RCH1            C                   950.0000      0.0000    135.0065    282.3131      0.0120      1.0160      1.0000      1.0000      0.9302      0.9151      0.0259           0
RCH1            C                   950.0000      0.0000    135.0065    282.3131      0.0120      6.1863      1.0000      1.0000      0.9302      0.9151      0.0259           0
RCH1            C                   950.0000      0.0000    135.0065    282.3131      0.0120      3.9445      1.0000      1.0000      0.9302      0.9151      0.0259           0
RCH1            C                   950.0000      0.0000    135.0065    282.3131      0.0120      5.6136      1.0000      1.0000      0.9302      0.9151      0.0259           0
RCH1            C                   950.0000      0.0000    135.0065    282.3131      0.0120      5.7270      1.0000      1.0000      0.9302      0.9151      0.0259           0
RCH1            C                   950.0000      0.0000    135.0065    282.3131      0.0120      8.2514      1.0000      1.0000      0.9302      0.9151      0.0259           0
RCH1            C                   950.0000      0.0000    135.0065    282.3131      0.0120      1.3615      1.0000      1.0000      0.9302      0.9151      0.0259           0
RCH1            C                   950.0000      0.0000    135.0065    282.3131      0.0120      1.8798      1.0000      1.0000      0.9302      0.9151      0.0259           0
RCH1            C                   950.0000      0.0000    135.0065    282.3131      0.0120      1.6005      1.0000      1.0000      0.9302      0.9151      0.0259           0
RCH1            C                   950.0000      0.0000    135.0065    282.3131      0.0120      6.2140      1.0000      1.0000      0.9302      0.9151      0.0259           0
RCH1            C                   950.0000      0.0000    135.0065    282.3131      0.0120      4.8139      1.0000      1.0000      0.9302      0.9151      0.0259           0
RCH1            C                   950.0000      0.0000    135.0065    282.3131      0.0120      7.1524      1.0000      1.0000      0.9302      0.9151      0.0259           0
RCH1            C                   950.0000      0.0000    135.0065    282.3131      0.0120      3.4326      1.0000      1.0000      0.9302      0.9151      0.0259           0
RCH1            C                   950.0000      0.0000    135.0065    282.3131      0.0120      5.7075      1.0000      1.0000      0.9302      0.9151      0.0259           0
RCH1            C                   950.0000      0.0000    135.0065    282.3131      0.0120      1.9410      1.0000      1.0000      0.9302      0.9151      0.0259           0
RCH1            C                   950.0000      0.0000    135.0065    282.3131      0.0120      5.5295      1.0000      1.0000      0.9302      0.9151      0.0259           0
RCH1            C                   950.0000      0.0000    135.0065    282.3131      0.0120      1.9376      1.0000      1.0000      0.9302      0.9151      0.0259           0
RCH1            C                   950.0000      0.0000    135.0065    282.3131      0.0120     13.0514      1.0000      1.0000      0.9302      0.9151      0.0259           0
GVN1            C                  1050.0000      0.0000    130.3325    264.0605      1.0000      4.1403      1.0000      1.0000      0.9302      0.9151      0.0259           0
GVN1            C                  1050.0000      0.0000    130.3325    264.0605      1.0000      3.9545      1.0000      1.0000      0.9302      0.9151      0.0259           0
RCH1            C                   950.0000      0.0000    135.0065    282.3131      0.0120      4.8299      1.0000      1.0000      0.9302      0.9151      0.0259           0
RCH1            C                   950.0000      0.0000    135.0065    282.3131      0.0120      5.6213      1.0000      1.0000      0.9302      0.9151      0.0259           0
RCH1            C                   950.0000      0.0000    135.0065    282.3131      0.0120      5.0362      1.0000      1.0000      0.9302      0.9151      0.0259           0
RCH1            C                   950.0000      0.0000    135.0065    282.3131      0.0120      9.6673      1.0000      1.0000      0.9302      0.9151      0.0259           0
RCH1            C                   950.0000      0.0000    135.0065    282.3131      0.0120     12.6040      1.0000      1.0000      0.9302      0.9151      0.0259           0
RCH1            C                   950.0000      0.0000    135.0065    282.3131      0.0120      3.6974      1.0000      1.0000      0.9302      0.9151      0.0259           0
RCH1            C                   950.0000      0.0000    135.0065    282.3131      0.0120     19.6334      1.0000      1.0000      0.9302      0.9151      0.0259           0
GVN1            C                  1050.0000      0.0000    130.3325    264.0605      0.0120     14.0789      1.0000      1.0000      0.9302      0.9151      0.0259           0
GVN1            C                  1050.0000      0.0000    130.3325    264.0605      0.0120     14.5106      1.0000      1.0000      0.9302      0.9151      0.0259           0
GVN1            C                  1050.0000      0.0000    130.3325    264.0605      0.0120     12.2446      1.0000      1.0000      0.9302      0.9151      0.0259           0
GVN1            C                  1050.0000      0.0000    130.3325    264.0605      0.0120      8.3162      1.0000      1.0000      0.9302      0.9151      0.0259           0
RCH1            C                   950.0000      0.0000    135.0065    282.3131      0.0120      3.1814      1.0000      1.0000      0.9302      0.9151      0.0259           0
RCH1            C                   950.0000      0.0000    135.0065    282.3131      1.0000      9.1571      1.0000      1.0000      0.9302      0.9151      0.0259           0
RCH1            C                   950.0000      0.0000    135.0065    282.3131      0.0120      5.5091      1.0000      1.0000      0.9302      0.9151      0.0259           0
GVN1            C                  1050.0000      0.0000    130.3325    264.0605      0.0120      9.6109      1.0000      1.0000      0.9302      0.9151      0.0259           0
GVN1            C                  1050.0000      0.0000    130.3325    264.0605      0.0120      9.5376      1.0000      1.0000      0.9302      0.9151      0.0259           0
RCH1            C                   950.0000      0.0000    135.0065    282.3131      0.0120      9.2832      1.0000      1.0000      0.9302      0.9151      0.0259           0
GVN1            C                  1050.0000      0.0000    130.3325    264.0605      1.0000     14.6762      1.0000      1.0000      0.9302      0.9151      0.0259           0
RCH1            C                   950.0000      0.0000    135.0065    282.3131      0.0120     18.2169      1.0000      1.0000      0.9302      0.9151      0.0259           0
GVN1            C                  1050.0000      0.0000    130.3325    264.0605      0.0120     10.2240      1.0000      1.0000      0.9302      0.9151      0.0259           0
RCH1            C                   950.0000      0.0000    135.0065    282.3131      0.0120      9.0573      1.0000      1.0000      0.9302      0.9151      0.0259           0
RCH1            C                   950.0000      0.0000    135.0065    282.3131      0.0120      9.6579      1.0000      1.0000      0.9302      0.9151      0.0259           0
RCH1            C                   950.0000      0.0000    135.0065    282.3131      0.0120      5.5114      1.0000      1.0000      0.9302      0.9151      0.0259           0
RCH1            C                   950.0000      0.0000    135.0065    282.3131      0.0120     10.4315      1.0000      1.0000      0.9302      0.9151      0.0259           0
GVN1            C                  1050.0000      0.0000    130.3325    264.0605      1.0000      5.5483      1.0000      1.0000      0.9302      0.9151      0.0259           0
GVN1            C                  1050.0000      0.0000    130.3325    264.0605      1.0000     12.0069      1.0000      1.0000      0.9302      0.9151      0.0259           0
RCH1            C                   950.0000      0.0000    135.0065    282.3131      0.0120      5.4093      1.0000      1.0000      0.9302      0.9151      0.0259           0
RCH1            C                   950.0000      0.0000    135.0065    282.3131      0.0120     14.8485      1.0000      1.0000      0.9302      0.9151      0.0259           0
RCH1            C                   950.0000      0.0000    135.0065    282.3131      0.0120     10.9548      1.0000      1.0000      0.9302      0.9151      0.0259           0
RCH1            C                   950.0000      0.0000    135.0065    282.3131      0.0120     11.1577      1.0000      1.0000      0.9302      0.9151      0.0259           0
GVN1            C                  1050.0000      0.0000    130.3325    264.0605      1.0000      8.2134      1.0000      1.0000      0.9302      0.9151      0.0259           0
RCH1            C                   950.0000      0.0000    135.0065    282.3131      0.0120      5.2441      1.0000      1.0000      0.9302      0.9151      0.0259           0
GVN1            C                  1050.0000      0.0000    130.3325    264.0605      0.0120      7.9111      1.0000      1.0000      0.9302      0.9151      0.0259           0
GVN1            C                  1050.0000      0.0000    130.3325    264.0605      0.0120     15.3569      1.0000      1.0000      0.9302      0.9151      0.0259           0
GVN1            C                  1050.0000      0.0000    130.3325    264.0605      0.0120      7.8254      1.0000      1.0000      0.9302      0.9151      0.0259           0
GVN1            C                  1050.0000      0.0000    130.3325    264.0605      0.0120     12.8476      1.0000      1.0000      0.9302      0.9151      0.0259           0
GVN1            C                  1050.0000      0.0000    130.3325    264.0605      0.0120     22.5275      1.0000      1.0000      0.9302      0.9151      0.0259           0
GVN1            C                  1050.0000      0.0000    130.3325    264.0605      0.0120     23.0945      1.0000      1.0000      0.9302      0.9151      0.0259           0
GVN1            C                  1050.0000      0.0000    130.3325    264.0605      0.0120      9.5175      1.0000      1.0000      0.9302      0.9151      0.0259           0
GVN1            C                  1050.0000      0.0000    130.3325    264.0605      0.0120     14.6017      1.0000      1.0000      0.9302      0.9151      0.0259           0
GVN1            C                  1050.0000      0.0000    130.3325    264.0605      0.0120     16.7429      1.0000      1.0000      0.9302      0.9151      0.0259           0
GVN1            C                  1050.0000      0.0000    130.3325    264.0605      0.0120     13.2082      1.0000      1.0000      0.9302      0.9151      0.0259           0
GVN1            C                  1050.0000      0.0000    130.3325    264.0605      0.0120     29.5992      1.0000      1.0000      0.9302      0.9151      0.0259           0
GVN1            C                  1050.0000      0.0000    130.3325    264.0605      0.0120     12.8634      1.0000      1.0000      0.9302      0.9151      0.0259           0
GVN1            C                  1050.0000      0.0000    130.3325    264.0605      0.0120     10.1039      1.0000      1.0000      0.9302      0.9151      0.0259           0
GVN1            C                  1050.0000      0.0000    130.3325    264.0605      0.0120     14.2968      1.0000      1.0000      0.9302      0.9151      0.0259           0
RCH1            C                   950.0000      0.0000    135.0065    282.3131      0.0120      5.1807      1.0000      1.0000      0.9302      0.9151      0.0259           0
GVN1            C                  1050.0000      0.0000    130.3325    264.0605      0.0120     12.9308      1.0000      1.0000      0.9302      0.9151      0.0259           0
RCH1            C                   950.0000      0.0000    135.0065    282.3131      0.0120     11.6853      1.0000      1.0000      0.9302      0.9151      0.0259           0
GVN1            C                  1050.0000      0.0000    130.3325    264.0605      0.0120     13.9952      1.0000      1.0000      0.9302      0.9151      0.0259           0
GVN1            C                  1050.0000      0.0000    130.3325    264.0605      0.0120     18.1146      1.0000      1.0000      0.9302      0.9151      0.0259           0
GVN1            C                  1050.0000      0.0000    130.3325    264.0605      0.0120     17.3816      1.0000      1.0000      0.9302      0.9151      0.0259           0
RCH1            C                   950.0000      0.0000    135.0065    282.3131      0.0120      7.5868      1.0000      1.0000      0.9302      0.9151      0.0259           0
GVN1            C                  1050.0000      0.0000    130.3325    264.0605      0.0120      9.4421      1.0000      1.0000      0.9302      0.9151      0.0259           0
GVN1            C                  1050.0000      0.0000    130.3325    264.0605      0.0120      9.9886      1.0000      1.0000      0.9302      0.9151      0.0259           0
GVN1            C                  1050.0000      0.0000    130.3325    264.0605      0.0120     12.4354      1.0000      1.0000      0.9302      0.9151      0.0259           0
RCH1            C                   950.0000      0.0000    135.0065    282.3131      0.0120      5.0989      1.0000      1.0000      0.9302      0.9151      0.0259           0
RCH1            C                   950.0000      0.0000    135.0065    282.3131      0.0120      6.8120      1.0000      1.0000      0.9302      0.9151      0.0259           0
RCH1            C                   950.0000      0.0000    135.0065    282.3131      0.0120      4.7090      1.0000      1.0000      0.9302      0.9151      0.0259           0
RCH1            C                   950.0000      0.0000    135.0065    282.3131      0.0120      6.2564      1.0000      1.0000      0.9302      0.9151      0.0259           0
RCH1            C                   950.0000      0.0000    135.0065    282.3131      1.0000      3.8151      1.0000      1.0000      0.9302      0.9151      0.0259           0
RCH1            C                   950.0000      0.0000    135.0065    282.3131      0.0120      5.6651      1.0000      1.0000      0.9302      0.9151      0.0259           0
GVN1            C                  1050.0000      0.0000    130.3325    264.0605      0.0120     17.8447      1.0000      1.0000      0.9302      0.9151      0.0259           0
GVN1            C                  1050.0000      0.0000    130.3325    264.0605      0.0120     12.2592      1.0000      1.0000      0.9302      0.9151      0.0259           0
GVN1            C                  1050.0000      0.0000    130.3325    264.0605      0.0120     14.9342      1.0000      1.0000      0.9302      0.9151      0.0259           0
GVN1            C                  1050.0000      0.0000    130.3325    264.0605      0.0120     11.0424      1.0000      1.0000      0.9302      0.9151      0.0259           0
RCH1            C                   950.0000      0.0000    135.0065    282.3131      0.0120      9.1816      1.0000      1.0000      0.9302      0.9151      0.0259           0
GVN1            C                  1050.0000      0.0000    130.3325    264.0605      0.0120     10.9049      1.0000      1.0000      0.9302      0.9151      0.0259           0
GVN1            C                  1050.0000      0.0000    130.3325    264.0605      0.0120      9.3521      1.0000      1.0000      0.9302      0.9151      0.0259           0
GVN1            C                  1050.0000      0.0000    130.3325    264.0605      0.0120     15.5747      1.0000      1.0000      0.9302      0.9151      0.0259           0
RCH1            C                   950.0000      0.0000    135.0065    282.3131      0.0120      4.0442      1.0000      1.0000      0.9302      0.9151      0.0259           0
GVN1            C                  1050.0000      0.0000    130.3325    264.0605      0.0120     13.8919      1.0000      1.0000      0.9302      0.9151      0.0259           0
GVN1            C                  1050.0000      0.0000    130.3325    264.0605      0.0120     28.1375      1.0000      1.0000      0.9302      0.9151      0.0259           0
GVN1            C                  1050.0000      0.0000    130.3325    264.0605      0.0120     27.9096      1.0000      1.0000      0.9302      0.9151      0.0259           0
GVN1            C                  1050.0000      0.0000    130.3325    264.0605      0.0120     21.4807      1.0000      1.0000      0.9302      0.9151      0.0259           0
GVN1            C                  1050.0000      0.0000    130.3325    264.0605      0.0120     14.0644      1.0000      1.0000      0.9302      0.9151      0.0259           0
GVN1            C                  1050.0000      0.0000    130.3325    264.0605      0.0120     20.7088      1.0000      1.0000      0.9302      0.9151      0.0259           0
GVN1            C                  1050.0000      0.0000    130.3325    264.0605      0.0120     15.1276      1.0000      1.0000      0.9302      0.9151      0.0259           0
RCH1            C                   950.0000      0.0000    135.0065    282.3131      0.0120     21.9769      1.0000      1.0000      0.9302      0.9151      0.0259           0
RCH1            C                   950.0000      0.0000    135.0065    282.3131      0.0120      8.4790      1.0000      1.0000      0.9302      0.9151      0.0259           0
RCH1            C                   950.0000      0.0000    135.0065    282.3131      0.0120      5.9973      1.0000      1.0000      0.9302      0.9151      0.0259           0
RCH1            C                   950.0000      0.0000    135.0065    282.3131      0.0120      7.3672      1.0000      1.0000      0.9302      0.9151      0.0259           0
GVN1            C                  1050.0000      0.0000    130.3325    264.0605      0.0120      6.2132      1.0000      1.0000      0.9302      0.9151      0.0259           0
GVN1            C                  1050.0000      0.0000    130.3325    264.0605      1.0000     12.2920      1.0000      1.0000      0.9302      0.9151      0.0259           0
GVN1            C                  1050.0000      0.0000    130.3325    264.0605      0.0120     11.1665      1.0000      1.0000      0.9302      0.9151      0.0259           0
GVN1            C                  1050.0000      0.0000    130.3325    264.0605      0.0120     19.2284      1.0000      1.0000      0.9302      0.9151      0.0259           0
RCH1            C                   950.0000      0.0000    135.0065    282.3131      0.0120     10.5754      1.0000      1.0000      0.9302      0.9151      0.0259           0
RCH1            C                   950.0000      0.0000    135.0065    282.3131      0.0120      3.3928      1.0000      1.0000      0.9302      0.9151      0.0259           0
GVN1            C                  1050.0000      0.0000    130.3325    264.0605      0.0120     16.1934      1.0000      1.0000      0.9302      0.9151      0.0259           0
RCH1            C                   950.0000      0.0000    135.0065    282.3131      0.0120      1.8447      1.0000      1.0000      0.9302      0.9151      0.0259           0
GVN1            C                  1050.0000      0.0000    130.3325    264.0605      0.0120      6.8400      1.0000      1.0000      0.9302      0.9151      0.0259           0
RCH1            C                   950.0000      0.0000    135.0065    282.3131      1.0000      5.4387      1.0000      1.0000      0.9302      0.9151      0.0259           0
GVN1            C                  1050.0000      0.0000    130.3325    264.0605      0.0120      8.7515      1.0000      1.0000      0.9302      0.9151      0.0259           0
GVN1            C                  1050.0000      0.0000    130.3325    264.0605      0.0120      9.6744      1.0000      1.0000      0.9302      0.9151      0.0259           0
GVN1            C                  1050.0000      0.0000    130.3325    264.0605      0.0120     26.1344      1.0000      1.0000      0.9302      0.9151      0.0259           0
RCH1            C                   950.0000      0.0000    135.0065    282.3131      0.0120      5.8680      1.0000      1.0000      0.9302      0.9151      0.0259           0
RCH1            C                   950.0000      0.0000    135.0065    282.3131      0.0120      8.3140      1.0000      1.0000      0.9302      0.9151      0.0259           0
GVN1            C                  1050.0000      0.0000    130.3325    264.0605      0.0120      8.6428      1.0000      1.0000      0.9302      0.9151      0.0259           0
GVN1            C                  1050.0000      0.0000    130.3325    264.0605      0.0120     16.3441      1.0000      1.0000      0.9302      0.9151      0.0259           0
RCH1            C                   950.0000      0.0000    135.0065    282.3131      0.0120     14.8711      1.0000      1.0000      0.9302      0.9151      0.0259           0
GVN1            C                  1050.0000      0.0000    130.3325    264.0605      0.0120     22.4250      1.0000      1.0000      0.9302      0.9151      0.0259           0
GVN1            C                  1050.0000      0.0000    130.3325    264.0605      0.0120     21.4228      1.0000      1.0000      0.9302      0.9151      0.0259           0
GVN1            C                  1050.0000      0.0000    130.3325    264.0605      0.0120     21.9458      1.0000      1.0000      0.9302      0.9151      0.0259           0
GVN1            C                  1050.0000      0.0000    130.3325    264.0605      0.0120     20.5352      1.0000      1.0000      0.9302      0.9151      0.0259           0
GVN1            C                  1050.0000      0.0000    130.3325    264.0605      0.0120     27.2099      1.0000      1.0000      0.9302      0.9151      0.0259           0
RCH1            C                   950.0000      0.0000    135.0065    282.3131      0.0120     14.2868      1.0000      1.0000      0.9302      0.9151      0.0259           0
GVN1            C                  1050.0000      0.0000    130.3325    264.0605      0.0120     14.4478      1.0000      1.0000      0.9302      0.9151      0.0259           0
GVN1            C                  1050.0000      0.0000    130.3325    264.0605      0.0120      7.5612      1.0000      1.0000      0.9302      0.9151      0.0259           0
GVN1            C                  1050.0000      0.0000    130.3325    264.0605      0.0120     15.7509      1.0000      1.0000      0.9302      0.9151      0.0259           0
RCH1            C                   950.0000      0.0000    135.0065    282.3131      0.0120     14.6269      1.0000      1.0000      0.9302      0.9151      0.0259           0
GVN1            C                  1050.0000      0.0000    130.3325    264.0605      0.0120      6.3840      1.0000      1.0000      0.9302      0.9151      0.0259           0
GVN1            C                  1050.0000      0.0000    130.3325    264.0605      0.0120     20.1119      1.0000      1.0000      0.9302      0.9151      0.0259           0
RCH1            C                   950.0000      0.0000    135.0065    282.3131      0.0120      4.3736      1.0000      1.0000      0.9302      0.9151      0.0259           0
RCH1            C                   950.0000      0.0000    135.0065    282.3131      0.0120      8.5372      1.0000      1.0000      0.9302      0.9151      0.0259           0
GVN1            C                  1050.0000      0.0000    130.3325    264.0605      0.0120     11.9653      1.0000      1.0000      0.9302      0.9151      0.0259           0
GVN1            C                  1050.0000      0.0000    130.3325    264.0605      0.0120      7.0588      1.0000      1.0000      0.9302      0.9151      0.0259           0
RCH1            C                   950.0000      0.0000    135.0065    282.3131      0.0120      1.7423      1.0000      1.0000      0.9302      0.9151      0.0259           0
GVN1            C                  1050.0000      0.0000    130.3325    264.0605      0.0120     12.2915      1.0000      1.0000      0.9302      0.9151      0.0259           0
RCH1            C                   950.0000      0.0000    135.0065    282.3131      0.0120      2.4355      1.0000      1.0000      0.9302      0.9151      0.0259           0
GVN1            C                  1050.0000      0.0000    130.3325    264.0605      0.0120     15.8902      1.0000      1.0000      0.9302      0.9151      0.0259           0
GVN1            C                  1050.0000      0.0000    130.3325    264.0605      0.0120     13.4019      1.0000      1.0000      0.9302      0.9151      0.0259           0
GVN1            C                  1050.0000      0.0000    130.3325    264.0605      0.0120     11.7231      1.0000      1.0000      0.9302      0.9151      0.0259           0
RCH1            C                   950.0000      0.0000    135.0065    282.3131      0.0120      3.5534      1.0000      1.0000      0.9302      0.9151      0.0259           0
GVN1            C                  1050.0000      0.0000    130.3325    264.0605      0.0120     11.1591      1.0000      1.0000      0.9302      0.9151      0.0259           0
RCH1            C                   950.0000      0.0000    135.0065    282.3131      0.0120      3.1269      1.0000      1.0000      0.9302      0.9151      0.0259           0
GVN1            C                  1050.0000      0.0000    130.3325    264.0605      0.0120     15.7753      1.0000      1.0000      0.9302      0.9151      0.0259           0
GVN1            C                  1050.0000      0.0000    130.3325    264.0605      0.0120      9.9910      1.0000      1.0000      0.9302      0.9151      0.0259           0
RCH1            C                   950.0000      0.0000    135.0065    282.3131      0.0120      3.8178      1.0000      1.0000      0.9302      0.9151      0.0259           0
GVN1            C                  1050.0000      0.0000    130.3325    264.0605      0.0120      5.8487      1.0000      1.0000      0.9302      0.9151      0.0259           0
GVN1            C                  1050.0000      0.0000    130.3325    264.0605      0.0120     10.7807      1.0000      1.0000      0.9302      0.9151      0.0259           0
RCH1            C                   950.0000      0.0000    135.0065    282.3131      0.0120      6.3211      1.0000      1.0000      0.9302      0.9151      0.0259           0
GVN1            C                  1050.0000      0.0000    130.3325    264.0605      0.0120     11.1763      1.0000      1.0000      0.9302      0.9151      0.0259           0
GVN1            C                  1050.0000      0.0000    130.3325    264.0605      0.0120      9.5114      1.0000      1.0000      0.9302      0.9151      0.0259           0
GVN1            C                  1050.0000      0.0000    130.3325    264.0605      1.0000      6.0383      1.0000      1.0000      0.9302      0.9151      0.0259           0
GVN1            C                  1050.0000      0.0000    130.3325    264.0605      0.0120     10.3781      1.0000      1.0000      0.9302      0.9151      0.0259           0
GVN1            C                  1050.0000      0.0000    130.3325    264.0605      0.0120     16.3692      1.0000      1.0000      0.9302      0.9151      0.0259           0
GVN1            C                  1050.0000      0.0000    130.3325    264.0605      1.0000     10.8069      1.0000      1.0000      0.9302      0.9151      0.0259           0
GVN1            C                  1050.0000      0.0000    130.3325    264.0605      0.0120      8.5598      1.0000      1.0000      0.9302      0.9151      0.0259           0
RCH1            C                   950.0000      0.0000    135.0065    282.3131      0.0120     12.7977      1.0000      1.0000      0.9302      0.9151      0.0259           0
GVN1            C                  1050.0000      0.0000    130.3325    264.0605      0.0120     12.4470      1.0000      1.0000      0.9302      0.9151      0.0259           0
GVN1            C                  1050.0000      0.0000    130.3325    264.0605      0.0120     21.9829      1.0000      1.0000      0.9302      0.9151      0.0259           0
GVN1            C                  1050.0000      0.0000    130.3325    264.0605      0.0120      6.4268      1.0000      1.0000      0.9302      0.9151      0.0259           0
RCH1            C                   950.0000      0.0000    135.0065    282.3131      0.0120      6.9749      1.0000      1.0000      0.9302      0.9151      0.0259           0
GVN1            C                  1050.0000      0.0000    130.3325    264.0605      0.0120     10.7442      1.0000      1.0000      0.9302      0.9151      0.0259           0
GVN1            C                  1050.0000      0.0000    130.3325    264.0605      0.0120     14.5069      1.0000      1.0000      0.9302      0.9151      0.0259           0
GVN1            C                  1050.0000      0.0000    130.3325    264.0605      0.0120      9.2795      1.0000      1.0000      0.9302      0.9151      0.0259           0
GVN1            C                  1050.0000      0.0000    130.3325    264.0605      0.0120     11.0272      1.0000      1.0000      0.9302      0.9151      0.0259           0
RCH1            C                   950.0000      0.0000    135.0065    282.3131      0.0120      1.4184      1.0000      1.0000      0.9302      0.9151      0.0259           0
GVN1            C                  1050.0000      0.0000    130.3325    264.0605      0.0120     10.0377      1.0000      1.0000      0.9302      0.9151      0.0259           0
GVN1            C                  1050.0000      0.0000    130.3325    264.0605      0.0120      2.3484      1.0000      1.0000      0.9302      0.9151      0.0259           0
GVN1            C                  1050.0000      0.0000    130.3325    264.0605      0.0120      6.5455      1.0000      1.0000      0.9302      0.9151      0.0259           0
GVN1            C                  1050.0000      0.0000    130.3325    264.0605      0.0120      6.5319      1.0000      1.0000      0.9302      0.9151      0.0259           0
RCH1            C                   950.0000      0.0000    135.0065    282.3131      0.0120      9.3437      1.0000      1.0000      0.9302      0.9151      0.0259           0
GVN1            C                  1050.0000      0.0000    130.3325    264.0605      0.0120     20.0726      1.0000      1.0000      0.9302      0.9151      0.0259           0
GVN1            C                  1050.0000      0.0000    130.3325    264.0605      0.0120      2.1033      1.0000      1.0000      0.9302      0.9151      0.0259           0
GVN1            C                  1050.0000      0.0000    130.3325    264.0605      0.0120      1.1135      1.0000      1.0000      0.9302      0.9151      0.0259           0
GVN1            C                  1050.0000      0.0000    130.3325    264.0605      0.0120      3.7472      1.0000      1.0000      0.9302      0.9151      0.0259           0
RCH1            C                   950.0000      0.0000    135.0065    282.3131      1.0000      4.0483      1.0000      1.0000      0.9302      0.9151      0.0259           0
RCH1            C                   950.0000      0.0000    135.0065    282.3131      0.0120      1.8523      1.0000      1.0000      0.9302      0.9151      0.0259           0
GVN1            C                  1050.0000      0.0000    130.3325    264.0605      0.0120      7.4403      1.0000      1.0000      0.9302      0.9151      0.0259           0
RCH1            C                   950.0000      0.0000    135.0065    282.3131      0.0120      2.0468      1.0000      1.0000      0.9302      0.9151      0.0259           0
GVN1            C                  1050.0000      0.0000    130.3325    264.0605      0.0120      4.5973      1.0000      1.0000      0.9302      0.9151      0.0259           0
GVN1            C                  1050.0000      0.0000    130.3325    264.0605      0.0120      1.8373      1.0000      1.0000      0.9302      0.9151      0.0259           0
GVN1            C                  1050.0000      0.0000    130.3325    264.0605      0.0120      5.5564      1.0000      1.0000      0.9302      0.9151      0.0259           0
GVN1            C                  1050.0000      0.0000    130.3325    264.0605      0.0120      2.3498      1.0000      1.0000      0.9302      0.9151      0.0259           0
GVN1            C                  1050.0000      0.0000    130.3325    264.0605      0.0120      4.5570      1.0000      1.0000      0.9302      0.9151      0.0259           0
GVN1            C                  1050.0000      0.0000    130.3325    264.0605      0.0120     11.0600      1.0000      1.0000      0.9302      0.9151      0.0259           0
GVN1            C                  1050.0000      0.0000    130.3325    264.0605      0.0120     23.3804      1.0000      1.0000      0.9302      0.9151      0.0259           0
GVN1            C                  1050.0000      0.0000    130.3325    264.0605      0.0120     26.1301      1.0000      1.0000      0.9302      0.9151      0.0259           0
GVN1            C                  1050.0000      0.0000    130.3325    264.0605      0.0120     17.3935      1.0000      1.0000      0.9302      0.9151      0.0259           0
GVN1            C                  1050.0000      0.0000    130.3325    264.0605      0.0120     26.7540      1.0000      1.0000      0.9302      0.9151      0.0259           0
GVN1            C                  1050.0000      0.0000    130.3325    264.0605      0.0120     13.1077      1.0000      1.0000      0.9302      0.9151      0.0259           0
GVN1            C                  1050.0000      0.0000    130.3325    264.0605      0.0120     14.3840      1.0000      1.0000      0.9302      0.9151      0.0259           0
GVN1            C                  1050.0000      0.0000    130.3325    264.0605      0.0120     18.7669      1.0000      1.0000      0.9302      0.9151      0.0259           0
GVN1            C                  1050.0000      0.0000    130.3325    264.0605      0.0120     28.0172      1.0000      1.0000      0.9302      0.9151      0.0259           0
GVN1            C                  1050.0000      0.0000    130.3325    264.0605      0.0120     25.8342      1.0000      1.0000      0.9302      0.9151      0.0259           0
GVN1            C                  1050.0000      0.0000    130.3325    264.0605      0.0120     19.8235      1.0000      1.0000      0.9302      0.9151      0.0259           0
GVN1            C                  1050.0000      0.0000    130.3325    264.0605      0.0120     15.6909      1.0000      1.0000      0.9302      0.9151      0.0259           0
GVN1            C                  1050.0000      0.0000    130.3325    264.0605      0.0120     25.0494      1.0000      1.0000      0.9302      0.9151      0.0259           0
GVN1            C                  1050.0000      0.0000    130.3325    264.0605      0.0120     14.9311      1.0000      1.0000      0.9302      0.9151      0.0259           0
GVN1            C                  1050.0000      0.0000    130.3325    264.0605      0.0120     23.3417      1.0000      1.0000      0.9302      0.9151      0.0259           0
RCH1            C                   950.0000      0.0000    135.0065    282.3131      0.0120      9.2034      1.0000      1.0000      0.9302      0.9151      0.0259           0
GVN1            C                  1050.0000      0.0000    130.3325    264.0605      0.0120     19.8829      1.0000      1.0000      0.9302      0.9151      0.0259           0
GVN1            C                  1050.0000      0.0000    130.3325    264.0605      0.0120      8.2773      1.0000      1.0000      0.9302      0.9151      0.0259           0
RCH1            C                   950.0000      0.0000    135.0065    282.3131      0.0120      2.9481      1.0000      1.0000      0.9302      0.9151      0.0259           0
RCH1            C                   950.0000      0.0000    135.0065    282.3131      0.0120      4.4359      1.0000      1.0000      0.9302      0.9151      0.0259           0
RCH1            C                   950.0000      0.0000    135.0065    282.3131      0.0120      0.4735      1.0000      1.0000      0.9302      0.9151      0.0259           0
GVN1            C                  1050.0000      0.0000    130.3325    264.0605      0.0120     11.5606      1.0000      1.0000      0.9302      0.9151      0.0259           0
RCH1            C                   950.0000      0.0000    135.0065    282.3131      0.0120      4.7599      1.0000      1.0000      0.9302      0.9151      0.0259           0
GVN1            C                  1050.0000      0.0000    130.3325    264.0605      0.0120     11.3947      1.0000      1.0000      0.9302      0.9151      0.0259           0
RCH1            C                   950.0000      0.0000    135.0065    282.3131      0.0120      7.1223      1.0000      1.0000      0.9302      0.9151      0.0259           0
RCH1            C                   950.0000      0.0000    135.0065    282.3131      0.0120      1.6638      1.0000      1.0000      0.9302      0.9151      0.0259           0
RCH1            C                   950.0000      0.0000    135.0065    282.3131      0.0120      2.3748      1.0000      1.0000      0.9302      0.9151      0.0259           0
RCH1            C                   950.0000      0.0000    135.0065    282.3131      1.0000      1.1506      1.0000      1.0000      0.9302      0.9151      0.0259           0
RCH1            C                   950.0000      0.0000    135.0065    282.3131      0.0120      2.9666      1.0000      1.0000      0.9302      0.9151      0.0259           0
RCH1            C                   950.0000      0.0000    135.0065    282.3131      0.0120      0.7914      1.0000      1.0000      0.9302      0.9151      0.0259           0
RCH1            C                   950.0000      0.0000    135.0065    282.3131      1.0000      1.4097      1.0000      1.0000      0.9302      0.9151      0.0259           0
RCH1            C                   950.0000      0.0000    135.0065    282.3131      0.0120      4.3471      1.0000      1.0000      0.9302      0.9151      0.0259           0
RCH1            C                   950.0000      0.0000    135.0065    282.3131      0.0120      4.3645      1.0000      1.0000      0.9302      0.9151      0.0259           0
RCH1            C                   950.0000      0.0000    135.0065    282.3131      0.0120      4.3273      1.0000      1.0000      0.9302      0.9151      0.0259           0
RCH1            C                   950.0000      0.0000    135.0065    282.3131      0.0120      1.2679      1.0000      1.0000      0.9302      0.9151      0.0259           0
RCH1            C                   950.0000      0.0000    135.0065    282.3131      0.0120      0.5261      1.0000      1.0000      0.9302      0.9151      0.0259           0
RCH1            C                   950.0000      0.0000    135.0065    282.3131      0.0120      1.4053      1.0000      1.0000      0.9302      0.9151      0.0259           0
RCH1            C                   950.0000      0.0000    135.0065    282.3131      0.0120      1.5728      1.0000      1.0000      0.9302      0.9151      0.0259           0
RCH1            C                   950.0000      0.0000    135.0065    282.3131      1.0000      1.0165      1.0000      1.0000      0.9302      0.9151      0.0259           0
RCH1            C                   950.0000      0.0000    135.0065    282.3131      1.0000      9.6414      1.0000      1.0000      0.9302      0.9151      0.0259           0
RCH1            C                   950.0000      0.0000    135.0065    282.3131      0.0120      5.0388      1.0000      1.0000      0.9302      0.9151      0.0259           0
RCH1            C                   950.0000      0.0000    135.0065    282.3131      0.0120      5.3109      1.0000      1.0000      0.9302      0.9151      0.0259           0
RCH1            C                   950.0000      0.0000    135.0065    282.3131      0.0120      6.1927      1.0000      1.0000      0.9302      0.9151      0.0259           0
RCH1            C                   950.0000      0.0000    135.0065    282.3131      0.0120      6.0331      1.0000      1.0000      0.9302      0.9151      0.0259           0
RCH1            C                   950.0000      0.0000    135.0065    282.3131      1.0000      2.3663      1.0000      1.0000      0.9302      0.9151      0.0259           0
GVN1            C                  1050.0000      0.0000    130.3325    264.0605      0.0120     10.9128      1.0000      1.0000      0.9302      0.9151      0.0259           0
RCH1            C                   950.0000      0.0000    135.0065    282.3131      0.0120      6.1686      1.0000      1.0000      0.9302      0.9151      0.0259           0
RCH1            C                   950.0000      0.0000    135.0065    282.3131      0.0120      8.9505      1.0000      1.0000      0.9302      0.9151      0.0259           0
RCH1            C                   950.0000      0.0000    135.0065    282.3131      0.0120      0.9802      1.0000      1.0000      0.9302      0.9151      0.0259           0
RCH1            C                   950.0000      0.0000    135.0065    282.3131      0.0120      6.5303      1.0000      1.0000      0.9302      0.9151      0.0259           0
RCH1            C                   950.0000      0.0000    135.0065    282.3131      0.0120      6.8864      1.0000      1.0000      0.9302      0.9151      0.0259           0
RCH1            C                   950.0000      0.0000    135.0065    282.3131      0.0120      6.6567      1.0000      1.0000      0.9302      0.9151      0.0259           0
RCH1            C                   950.0000      0.0000    135.0065    282.3131      0.0120      6.9417      1.0000      1.0000      0.9302      0.9151      0.0259           0
RCH1            C                   950.0000      0.0000    135.0065    282.3131      0.0120      6.2907      1.0000      1.0000      0.9302      0.9151      0.0259           0
RCH1            C                   950.0000      0.0000    135.0065    282.3131      1.0000      7.1185      1.0000      1.0000      0.9302      0.9151      0.0259           0
RCH1            C                   950.0000      0.0000    135.0065    282.3131      0.0120      3.5508      1.0000      1.0000      0.9302      0.9151      0.0259           0
RCH1            C                   950.0000      0.0000    135.0065    282.3131      0.0120      2.2922      1.0000      1.0000      0.9302      0.9151      0.0259           0
RCH1            C                   950.0000      0.0000    135.0065    282.3131      0.0120      6.1145      1.0000      1.0000      0.9302      0.9151      0.0259           0
RCH1            C                   950.0000      0.0000    135.0065    282.3131      0.0120      1.1526      1.0000      1.0000      0.9302      0.9151      0.0259           0
RCH1            C                   950.0000      0.0000    135.0065    282.3131      0.0120      1.7281      1.0000      1.0000      0.9302      0.9151      0.0259           0
RCH1            C                   950.0000      0.0000    135.0065    282.3131      0.0120      3.9672      1.0000      1.0000      0.9302      0.9151      0.0259           0
RCH1            C                   950.0000      0.0000    135.0065    282.3131      0.0120      9.1400      1.0000      1.0000      0.9302      0.9151      0.0259           0
GVN1            C                  1050.0000      0.0000    130.3325    264.0605      1.0000      4.7563      1.0000      1.0000      0.9302      0.9151      0.0259           0
RCH1            C                   950.0000      0.0000    135.0065    282.3131      0.0120      1.0814      1.0000      1.0000      0.9302      0.9151      0.0259           0
RCH1            C                   950.0000      0.0000    135.0065    282.3131      0.0120      1.6583      1.0000      1.0000      0.9302      0.9151      0.0259           0
GVN1            C                  1050.0000      0.0000    130.3325    264.0605      0.0120     12.2607      1.0000      1.0000      0.9302      0.9151      0.0259           0
RCH1            C                   950.0000      0.0000    135.0065    282.3131      0.0120      0.8439      1.0000      1.0000      0.9302      0.9151      0.0259           0
RCH1            C                   950.0000      0.0000    135.0065    282.3131      0.0120      8.4411      1.0000      1.0000      0.9302      0.9151      0.0259           0
RCH1            C                   950.0000      0.0000    135.0065    282.3131      0.0120      0.2981      1.0000      1.0000      0.9302      0.9151      0.0259           0
GVN1            C                  1050.0000      0.0000    130.3325    264.0605      0.0120      7.3599      1.0000      1.0000      0.9302      0.9151      0.0259           0
RCH1            C                   950.0000      0.0000    135.0065    282.3131      0.0120      0.2437      1.0000      1.0000      0.9302      0.9151      0.0259           0
RCH1            C                   950.0000      0.0000    135.0065    282.3131      0.0120      0.3316      1.0000      1.0000      0.9302      0.9151      0.0259           0
RCH1            C                   950.0000      0.0000    135.0065    282.3131      0.0120      7.7729      1.0000      1.0000      0.9302      0.9151      0.0259           0
RCH1            C                   950.0000      0.0000    135.0065    282.3131      0.0120      5.1071      1.0000      1.0000      0.9302      0.9151      0.0259           0
RCH1            C                   950.0000      0.0000    135.0065    282.3131      0.0120      0.8039      1.0000      1.0000      0.9302      0.9151      0.0259           0
RCH1            C                   950.0000      0.0000    135.0065    282.3131      0.0120      0.5654      1.0000      1.0000      0.9302      0.9151      0.0259           0
RCH1            C                   950.0000      0.0000    135.0065    282.3131      0.0120      0.8134      1.0000      1.0000      0.9302      0.9151      0.0259           0
RCH1            C                   950.0000      0.0000    135.0065    282.3131      0.0120      1.9008      1.0000      1.0000      0.9302      0.9151      0.0259           0
RCH1            C                   950.0000      0.0000    135.0065    282.3131      0.0120      1.0857      1.0000      1.0000      0.9302      0.9151      0.0259           0
RCH1            C                   950.0000      0.0000    135.0065    282.3131      0.0120      3.3385      1.0000      1.0000      0.9302      0.9151      0.0259           0
RCH1            C                   950.0000      0.0000    135.0065    282.3131      0.0120      1.1918      1.0000      1.0000      0.9302      0.9151      0.0259           0
RCH1            C                   950.0000      0.0000    135.0065    282.3131      1.0000      2.7634      1.0000      1.0000      0.9302      0.9151      0.0259           0
RCH1            C                   950.0000      0.0000    135.0065    282.3131      0.0120      0.2916      1.0000      1.0000      0.9302      0.9151      0.0259           0
RCH1            C                   950.0000      0.0000    135.0065    282.3131      0.0120      0.8180      1.0000      1.0000      0.9302      0.9151      0.0259           0
RCH1            C                   950.0000      0.0000    135.0065    282.3131      0.0120      0.2974      1.0000      1.0000      0.9302      0.9151      0.0259           0
RCH1            C                   950.0000      0.0000    135.0065    282.3131      0.0120      5.0844      1.0000      1.0000      0.9302      0.9151      0.0259           0
RCH1            C                   950.0000      0.0000    135.0065    282.3131      0.0120      2.8616      1.0000      1.0000      0.9302      0.9151      0.0259           0
RCH1            C                   950.0000      0.0000    135.0065    282.3131      0.0120      1.8959      1.0000      1.0000      0.9302      0.9151      0.0259           0
GVN1            C                  1050.0000      0.0000    130.3325    264.0605      0.0120      9.4562      1.0000      1.0000      0.9302      0.9151      0.0259           0
GVN1            C                  1050.0000      0.0000    130.3325    264.0605      0.0120     19.8192      1.0000      1.0000      0.9302      0.9151      0.0259           0
GVN1            C                  1050.0000      0.0000    130.3325    264.0605      0.0120     13.3783      1.0000      1.0000      0.9302      0.9151      0.0259           0
GVN1            C                  1050.0000      0.0000    130.3325    264.0605      0.0120      7.8755      1.0000      1.0000      0.9302      0.9151      0.0259           0
RCH1            C                   950.0000      0.0000    135.0065    282.3131      0.0120      4.6405      1.0000      1.0000      0.9302      0.9151      0.0259           0
RCH1            C                   950.0000      0.0000    135.0065    282.3131      0.0120      0.5432      1.0000      1.0000      0.9302      0.9151      0.0259           0
RCH1            C                   950.0000      0.0000    135.0065    282.3131      0.0120      5.2265      1.0000      1.0000      0.9302      0.9151      0.0259           0
RCH1            C                   950.0000      0.0000    135.0065    282.3131      0.0120      1.8786      1.0000      1.0000      0.9302      0.9151      0.0259           0
RCH1            C                   950.0000      0.0000    135.0065    282.3131      0.0120      0.5628      1.0000      1.0000      0.9302      0.9151      0.0259           0
RCH1            C                   950.0000      0.0000    135.0065    282.3131      0.0120      1.6770      1.0000      1.0000      0.9302      0.9151      0.0259           0
RCH1            C                   950.0000      0.0000    135.0065    282.3131      1.0000      2.6887      1.0000      1.0000      0.9302      0.9151      0.0259           0
GVN1            C                  1050.0000      0.0000    130.3325    264.0605      0.0120      3.3541      1.0000      1.0000      0.9302      0.9151      0.0259           0
RCH1            C                   950.0000      0.0000    135.0065    282.3131      0.0120     13.5328      1.0000      1.0000      0.9302      0.9151      0.0259           0
GVN1            C                  1050.0000      0.0000    130.3325    264.0605      0.0120     12.8395      1.0000      1.0000      0.9302      0.9151      0.0259           0
RCH1            C                   950.0000      0.0000    135.0065    282.3131      0.0120      0.4847      1.0000      1.0000      0.9302      0.9151      0.0259           0
RCH1            C                   950.0000      0.0000    135.0065    282.3131      0.0120     10.2752      1.0000      1.0000      0.9302      0.9151      0.0259           0
RCH1            C                   950.0000      0.0000    135.0065    282.3131      0.0120      0.5574      1.0000      1.0000      0.9302      0.9151      0.0259           0
RCH1            C                   950.0000      0.0000    135.0065    282.3131      0.0120      0.6528      1.0000      1.0000      0.9302      0.9151      0.0259           0
RCH1            C                   950.0000      0.0000    135.0065    282.3131      1.0000      3.7839      1.0000      1.0000      0.9302      0.9151      0.0259           0
GVN1            C                  1050.0000      0.0000    130.3325    264.0605      0.0120      9.8354      1.0000      1.0000      0.9302      0.9151      0.0259           0
RCH1            C                   950.0000      0.0000    135.0065    282.3131      0.0120      2.3190      1.0000      1.0000      0.9302      0.9151      0.0259           0
RCH1            C                   950.0000      0.0000    135.0065    282.3131      1.0000      1.0100      1.0000      1.0000      0.9302      0.9151      0.0259           0
RCH1            C                   950.0000      0.0000    135.0065    282.3131      0.0120      0.5324      1.0000      1.0000      0.9302      0.9151      0.0259           0
RCH1            C                   950.0000      0.0000    135.0065    282.3131      1.0000      0.4298      1.0000      1.0000      0.9302      0.9151      0.0259           0
RCH1            C                   950.0000      0.0000    135.0065    282.3131      0.0120      8.9868      1.0000      1.0000      0.9302      0.9151      0.0259           0
RCH1            C                   950.0000      0.0000    135.0065    282.3131      0.0120      9.4922      1.0000      1.0000      0.9302      0.9151      0.0259           0
RCH1            C                   950.0000      0.0000    135.0065    282.3131      1.0000      3.0393      1.0000      1.0000      0.9302      0.9151      0.0259           0
RCH1            C                   950.0000      0.0000    135.0065    282.3131      1.0000      1.4860      1.0000      1.0000      0.9302      0.9151      0.0259           0
RCH1            C                   950.0000      0.0000    135.0065    282.3131      0.0120      7.9521      1.0000      1.0000      0.9302      0.9151      0.0259           0
RCH1            C                   950.0000      0.0000    135.0065    282.3131      0.0120     10.7850      1.0000      1.0000      0.9302      0.9151      0.0259           0
RCH1            C                   950.0000      0.0000    135.0065    282.3131      0.0120      9.5048      1.0000      1.0000      0.9302      0.9151      0.0259           0
GVN1            C                  1050.0000      0.0000    130.3325    264.0605      0.0120     10.5977      1.0000      1.0000      0.9302      0.9151      0.0259           0
GVN1            C                  1050.0000      0.0000    130.3325    264.0605      0.0120     13.2616      1.0000      1.0000      0.9302      0.9151      0.0259           0
GVN1            C                  1050.0000      0.0000    130.3325    264.0605      0.0120      5.7625      1.0000      1.0000      0.9302      0.9151      0.0259           0
GVN1            C                  1050.0000      0.0000    130.3325    264.0605      0.0120      6.6439      1.0000      1.0000      0.9302      0.9151      0.0259           0
RCH1            C                   950.0000      0.0000    135.0065    282.3131      1.0000      9.0020      1.0000      1.0000      0.9302      0.9151      0.0259           0
RCH1            C                   950.0000      0.0000    135.0065    282.3131      0.0120      0.2813      1.0000      1.0000      0.9302      0.9151      0.0259           0
RCH1            C                   950.0000      0.0000    135.0065    282.3131      0.0120      3.6627      1.0000      1.0000      0.9302      0.9151      0.0259           0
RCH1            C                   950.0000      0.0000    135.0065    282.3131      0.0120      2.9684      1.0000      1.0000      0.9302      0.9151      0.0259           0
VTT2            D                  2010.0000      0.0000    284.7560    564.5899      0.0120      4.6169      1.0000      1.0000      0.9302      0.9151      0.0259           0
VTT2            D                  2010.0000      0.0000    284.7560    564.5899      1.0000      0.2127      1.0000      1.0000      0.9302      0.9151      0.0259           0
VTT2            D                  2010.0000      0.0000    284.7560    564.5899      1.0000      1.9400      1.0000      1.0000      0.9302      0.9151      0.0259           0
PTC1            D                  2010.0000      0.0000    287.2427    551.0696      0.0120      0.2053      1.0000      1.0000      0.9302      0.9151      0.0259           0
PTC1            D                  2010.0000      0.0000    287.2427    551.0696      0.0120      0.3949      1.0000      1.0000      0.9302      0.9151      0.0259           0
VTT2            D                  2010.0000      0.0000    284.7560    564.5899      0.0120      0.2546      1.0000      1.0000      0.9302      0.9151      0.0259           0
RCH1            C                   950.0000      0.0000    135.0065    282.3131      0.0120      0.6781      1.0000      1.0000      0.9302      0.9151      0.0259           0
PTC1            D                  2010.0000      0.0000    287.2427    551.0696      0.0120      2.1597      1.0000      1.0000      0.9302      0.9151      0.0259           0
PTC1            D                  2010.0000      0.0000    287.2427    551.0696      0.0120      1.7469      1.0000      1.0000      0.9302      0.9151      0.0259           0
RCH1            C                   950.0000      0.0000    135.0065    282.3131      0.0120      0.3004      1.0000      1.0000      0.9302      0.9151      0.0259           0
VTT2            D                  2010.0000      0.0000    284.7560    564.5899      1.0000      1.1514      1.0000      1.0000      0.9302      0.9151      0.0259           0
VTT2            D                  2010.0000      0.0000    284.7560    564.5899      1.0000      0.8660      1.0000      1.0000      0.9302      0.9151      0.0259           0
PTC1            D                  2010.0000      0.0000    287.2427    551.0696      1.0000      0.6299      1.0000      1.0000      0.9302      0.9151      0.0259           0
RCH1            C                   950.0000      0.0000    135.0065    282.3131      0.0120      0.6998      1.0000      1.0000      0.9302      0.9151      0.0259           0
PTC1            D                  2010.0000      0.0000    287.2427    551.0696      0.0120      0.6144      1.0000      1.0000      0.9302      0.9151      0.0259           0
PTC1            D                  2010.0000      0.0000    287.2427    551.0696      1.0000      0.7647      1.0000      1.0000      0.9302      0.9151      0.0259           0
PTC1            D                  2010.0000      0.0000    287.2427    551.0696      0.0120      0.7277      1.0000      1.0000      0.9302      0.9151      0.0259           0
PTC1            D                  2010.0000      0.0000    287.2427    551.0696      1.0000      0.8625      1.0000      1.0000      0.9302      0.9151      0.0259           0
PTC1            D                  2010.0000      0.0000    287.2427    551.0696      1.0000      1.0019      1.0000      1.0000      0.9302      0.9151      0.0259           0
PTC1            D                  2010.0000      0.0000    287.2427    551.0696      1.0000      0.4352      1.0000      1.0000      0.9302      0.9151      0.0259           0
PTC1            D                  2010.0000      0.0000    287.2427    551.0696      0.0120      0.1985      1.0000      1.0000      0.9302      0.9151      0.0259           0
PTC1            D                  2010.0000      0.0000    287.2427    551.0696      0.0120      0.7974      1.0000      1.0000      0.9302      0.9151      0.0259           0
RCH1            C                   950.0000      0.0000    135.0065    282.3131      0.0120     24.2252      1.0000      1.0000      0.9302      0.9151      0.0259           0
RCH1            C                   950.0000      0.0000    135.0065    282.3131      0.0120     10.4542      1.0000      1.0000      0.9302      0.9151      0.0259           0
RCH1            C                   950.0000      0.0000    135.0065    282.3131      0.0120      3.7211      1.0000      1.0000      0.9302      0.9151      0.0259           0
RCH1            C                   950.0000      0.0000    135.0065    282.3131      0.0120      4.5737      1.0000      1.0000      0.9302      0.9151      0.0259           0
RCH1            C                   950.0000      0.0000    135.0065    282.3131      0.0120      0.9936      1.0000      1.0000      0.9302      0.9151      0.0259           0
RCH1            C                   950.0000      0.0000    135.0065    282.3131      1.0000      1.0347      1.0000      1.0000      0.9302      0.9151      0.0259           0
RCH1            C                   950.0000      0.0000    135.0065    282.3131      1.0000      0.3521      1.0000      1.0000      0.9302      0.9151      0.0259           0
RCH1            C                   950.0000      0.0000    135.0065    282.3131      1.0000      0.4388      1.0000      1.0000      0.9302      0.9151      0.0259           0
GVN1            C                  1050.0000      0.0000    130.3325    264.0605      0.0120     12.4991      1.0000      1.0000      0.9302      0.9151      0.0259           0
RCH1            C                   950.0000      0.0000    135.0065    282.3131      0.0120      0.7992      1.0000      1.0000      0.9302      0.9151      0.0259           0
PTC1            D                  2010.0000      0.0000    287.2427    551.0696      1.0000      2.4663      1.0000      1.0000      0.9302      0.9151      0.0259           0
RCH1            C                   950.0000      0.0000    135.0065    282.3131      0.0120      1.1838      1.0000      1.0000      0.9302      0.9151      0.0259           0
RCH1            C                   950.0000      0.0000    135.0065    282.3131      0.0120      1.4129      1.0000      1.0000      0.9302      0.9151      0.0259           0
RCH1            C                   950.0000      0.0000    135.0065    282.3131      1.0000      4.2466      1.0000      1.0000      0.9302      0.9151      0.0259           0
RCH1            C                   950.0000      0.0000    135.0065    282.3131      0.0120      0.2950      1.0000      1.0000      0.9302      0.9151      0.0259           0
RCH1            C                   950.0000      0.0000    135.0065    282.3131      0.0120      0.7241      1.0000      1.0000      0.9302      0.9151      0.0259           0
RCH1            C                   950.0000      0.0000    135.0065    282.3131      0.0120      1.3242      1.0000      1.0000      0.9302      0.9151      0.0259           0
RCH1            C                   950.0000      0.0000    135.0065    282.3131      0.0120      0.7268      1.0000      1.0000      0.9302      0.9151      0.0259           0
GVN1            C                  1050.0000      0.0000    130.3325    264.0605      0.0120     17.7069      1.0000      1.0000      0.9302      0.9151      0.0259           0
RCH1            C                   950.0000      0.0000    135.0065    282.3131      0.0120      0.2830      1.0000      1.0000      0.9302      0.9151      0.0259           0
RCH1            C                   950.0000      0.0000    135.0065    282.3131      0.0120      0.6949      1.0000      1.0000      0.9302      0.9151      0.0259           0
RCH1            C                   950.0000      0.0000    135.0065    282.3131      0.0120      3.3221      1.0000      1.0000      0.9302      0.9151      0.0259           0
GVN1            C                  1050.0000      0.0000    130.3325    264.0605      1.0000      4.5099      1.0000      1.0000      0.9302      0.9151      0.0259           0
RCH1            C                   950.0000      0.0000    135.0065    282.3131      0.0120      0.7012      1.0000      1.0000      0.9302      0.9151      0.0259           0
RCH1            C                   950.0000      0.0000    135.0065    282.3131      0.0120      1.6749      1.0000      1.0000      0.9302      0.9151      0.0259           0
RCH1            C                   950.0000      0.0000    135.0065    282.3131      0.0120      0.6012      1.0000      1.0000      0.9302      0.9151      0.0259           0
GVN1            C                  1050.0000      0.0000    130.3325    264.0605      1.0000      1.3592      1.0000      1.0000      0.9302      0.9151      0.0259           0
RCH1            C                   950.0000      0.0000    135.0065    282.3131      0.0120      0.8290      1.0000      1.0000      0.9302      0.9151      0.0259           0
RCH1            C                   950.0000      0.0000    135.0065    282.3131      1.0000      0.7528      1.0000      1.0000      0.9302      0.9151      0.0259           0
GVN1            C                  1050.0000      0.0000    130.3325    264.0605      1.0000      2.1253      1.0000      1.0000      0.9302      0.9151      0.0259           0
RCH1            C                   950.0000      0.0000    135.0065    282.3131      1.0000      0.9575      1.0000      1.0000      0.9302      0.9151      0.0259           0
RCH1            C                   950.0000      0.0000    135.0065    282.3131      1.0000      6.1249      1.0000      1.0000      0.9302      0.9151      0.0259           0
RCH1            C                   950.0000      0.0000    135.0065    282.3131      0.0120      5.2464      1.0000      1.0000      0.9302      0.9151      0.0259           0
RCH1            C                   950.0000      0.0000    135.0065    282.3131      0.0120      3.7459      1.0000      1.0000      0.9302      0.9151      0.0259           0
RCH1            C                   950.0000      0.0000    135.0065    282.3131      1.0000      0.9600      1.0000      1.0000      0.9302      0.9151      0.0259           0
RCH1            C                   950.0000      0.0000    135.0065    282.3131      0.0120      6.9233      1.0000      1.0000      0.9302      0.9151      0.0259           0
RCH1            C                   950.0000      0.0000    135.0065    282.3131      0.0120      0.5196      1.0000      1.0000      0.9302      0.9151      0.0259           0
RCH1            C                   950.0000      0.0000    135.0065    282.3131      0.0120      0.5485      1.0000      1.0000      0.9302      0.9151      0.0259           0
RCH1            C                   950.0000      0.0000    135.0065    282.3131      0.0120      6.8074      1.0000      1.0000      0.9302      0.9151      0.0259           0
GVN1            C                  1050.0000      0.0000    130.3325    264.0605      1.0000      5.0066      1.0000      1.0000      0.9302      0.9151      0.0259           0
RCH1            C                   950.0000      0.0000    135.0065    282.3131      0.0120     14.8600      1.0000      1.0000      0.9302      0.9151      0.0259           0
GVN1            C                  1050.0000      0.0000    130.3325    264.0605      0.0120     17.3811      1.0000      1.0000      0.9302      0.9151      0.0259           0
GVN1            C                  1050.0000      0.0000    130.3325    264.0605      0.0120     18.0735      1.0000      1.0000      0.9302      0.9151      0.0259           0
RCH1            C                   950.0000      0.0000    135.0065    282.3131      0.0120      4.5819      1.0000      1.0000      0.9302      0.9151      0.0259           0
RCH1            C                   950.0000      0.0000    135.0065    282.3131      0.0120      1.7328      1.0000      1.0000      0.9302      0.9151      0.0259           0
RCH1            C                   950.0000      0.0000    135.0065    282.3131      0.0120      4.3134      1.0000      1.0000      0.9302      0.9151      0.0259           0
RCH1            C                   950.0000      0.0000    135.0065    282.3131      0.0120      9.6052      1.0000      1.0000      0.9302      0.9151      0.0259           0
RCH1            C                   950.0000      0.0000    135.0065    282.3131      0.0120      9.4487      1.0000      1.0000      0.9302      0.9151      0.0259           0
GVN1            C                  1050.0000      0.0000    130.3325    264.0605      0.0120     18.8082      1.0000      1.0000      0.9302      0.9151      0.0259           0
RCH1            C                   950.0000      0.0000    135.0065    282.3131      0.0120      8.4758      1.0000      1.0000      0.9302      0.9151      0.0259           0
RCH1            C                   950.0000      0.0000    135.0065    282.3131      0.0120      4.5588      1.0000      1.0000      0.9302      0.9151      0.0259           0
RCH1            C                   950.0000      0.0000    135.0065    282.3131      0.0120      3.4990      1.0000      1.0000      0.9302      0.9151      0.0259           0
RCH1            C                   950.0000      0.0000    135.0065    282.3131      0.0120      6.3280      1.0000      1.0000      0.9302      0.9151      0.0259           0
RCH1            C                   950.0000      0.0000    135.0065    282.3131      0.0120      3.8501      1.0000      1.0000      0.9302      0.9151      0.0259           0
RCH1            C                   950.0000      0.0000    135.0065    282.3131      0.0120      0.8416      1.0000      1.0000      0.9302      0.9151      0.0259           0
RCH1            C                   950.0000      0.0000    135.0065    282.3131      0.0120      3.1426      1.0000      1.0000      0.9302      0.9151      0.0259           0
RCH1            C                   950.0000      0.0000    135.0065    282.3131      0.0120      5.5387      1.0000      1.0000      0.9302      0.9151      0.0259           0
RCH1            C                   950.0000      0.0000    135.0065    282.3131      0.0120     14.7066      1.0000      1.0000      0.9302      0.9151      0.0259           0
RCH1            C                   950.0000      0.0000    135.0065    282.3131      0.0120      4.9591      1.0000      1.0000      0.9302      0.9151      0.0259           0
RCH1            C                   950.0000      0.0000    135.0065    282.3131      0.0120      0.7350      1.0000      1.0000      0.9302      0.9151      0.0259           0
RCH1            C                   950.0000      0.0000    135.0065    282.3131      0.0120      0.7119      1.0000      1.0000      0.9302      0.9151      0.0259           0
RCH1            C                   950.0000      0.0000    135.0065    282.3131      0.0120      7.3500      1.0000      1.0000      0.9302      0.9151      0.0259           0
RCH1            C                   950.0000      0.0000    135.0065    282.3131      0.0120      0.5223      1.0000      1.0000      0.9302      0.9151      0.0259           0
RCH1            C                   950.0000      0.0000    135.0065    282.3131      0.0120      1.5701      1.0000      1.0000      0.9302      0.9151      0.0259           0
RCH1            C                   950.0000      0.0000    135.0065    282.3131      0.0120      1.5262      1.0000      1.0000      0.9302      0.9151      0.0259           0
RCH1            C                   950.0000      0.0000    135.0065    282.3131      0.0120      0.4382      1.0000      1.0000      0.9302      0.9151      0.0259           0
GVN1            C                  1050.0000      0.0000    130.3325    264.0605      0.0120     22.7157      1.0000      1.0000      0.9302      0.9151      0.0259           0
GVN1            C                  1050.0000      0.0000    130.3325    264.0605      0.0120     16.5479      1.0000      1.0000      0.9302      0.9151      0.0259           0
GVN1            C                  1050.0000      0.0000    130.3325    264.0605      0.0120     30.1616      1.0000      1.0000      0.9302      0.9151      0.0259           0
GVN1            C                  1050.0000      0.0000    130.3325    264.0605      0.0120      4.4243      1.0000      1.0000      0.9302      0.9151      0.0259           0
RCH1            C                   950.0000      0.0000    135.0065    282.3131      0.0120      9.9520      1.0000      1.0000      0.9302      0.9151      0.0259           0
GVN1            C                  1050.0000      0.0000    130.3325    264.0605      0.0120      9.1210      1.0000      1.0000      0.9302      0.9151      0.0259           0
GVN1            C                  1050.0000      0.0000    130.3325    264.0605      0.0120      9.6692      1.0000      1.0000      0.9302      0.9151      0.0259           0
GVN1            C                  1050.0000      0.0000    130.3325    264.0605      0.0120      9.7734      1.0000      1.0000      0.9302      0.9151      0.0259           0
RCH1            C                   950.0000      0.0000    135.0065    282.3131      0.0120      7.4791      1.0000      1.0000      0.9302      0.9151      0.0259           0
RCH1            C                   950.0000      0.0000    135.0065    282.3131      0.0120      5.7087      1.0000      1.0000      0.9302      0.9151      0.0259           0
RCH1            C                   950.0000      0.0000    135.0065    282.3131      0.0120      7.7829      1.0000      1.0000      0.9302      0.9151      0.0259           0
RCH1            C                   950.0000      0.0000    135.0065    282.3131      1.0000      3.6883      1.0000      1.0000      0.9302      0.9151      0.0259           0
RCH1            C                   950.0000      0.0000    135.0065    282.3131      0.0120      1.2323      1.0000      1.0000      0.9302      0.9151      0.0259           0
RCH1            C                   950.0000      0.0000    135.0065    282.3131      0.0120      0.7446      1.0000      1.0000      0.9302      0.9151      0.0259           0
RCH1            C                   950.0000      0.0000    135.0065    282.3131      0.0120      0.7984      1.0000      1.0000      0.9302      0.9151      0.0259           0
RCH1            C                   950.0000      0.0000    135.0065    282.3131      0.0120      1.6405      1.0000      1.0000      0.9302      0.9151      0.0259           0
RCH1            C                   950.0000      0.0000    135.0065    282.3131      0.0120      1.5723      1.0000      1.0000      0.9302      0.9151      0.0259           0
RCH1            C                   950.0000      0.0000    135.0065    282.3131      0.0120      1.6930      1.0000      1.0000      0.9302      0.9151      0.0259           0
RCH1            C                   950.0000      0.0000    135.0065    282.3131      0.0120      0.3026      1.0000      1.0000      0.9302      0.9151      0.0259           0
RCH1            C                   950.0000      0.0000    135.0065    282.3131      0.0120      0.9024      1.0000      1.0000      0.9302      0.9151      0.0259           0
RCH1            C                   950.0000      0.0000    135.0065    282.3131      0.0120      3.0393      1.0000      1.0000      0.9302      0.9151      0.0259           0
VTT2            D                  2010.0000      0.0000    284.7560    564.5899      0.0120      3.9894      1.0000      1.0000      0.9302      0.9151      0.0259           0
RCH1            C                   950.0000      0.0000    135.0065    282.3131      0.0120      5.8228      1.0000      1.0000      0.9302      0.9151      0.0259           0
RCH1            C                   950.0000      0.0000    135.0065    282.3131      0.0120      2.7201      1.0000      1.0000      0.9302      0.9151      0.0259           0
RCH1            C                   950.0000      0.0000    135.0065    282.3131      0.0120      1.1470      1.0000      1.0000      0.9302      0.9151      0.0259           0
RCH1            C                   950.0000      0.0000    135.0065    282.3131      0.0120      5.3314      1.0000      1.0000      0.9302      0.9151      0.0259           0
RCH1            C                   950.0000      0.0000    135.0065    282.3131      1.0000      3.9783      1.0000      1.0000      0.9302      0.9151      0.0259           0
GVN1            C                  1050.0000      0.0000    130.3325    264.0605      1.0000      4.4961      1.0000      1.0000      0.9302      0.9151      0.0259           0
RCH1            C                   950.0000      0.0000    135.0065    282.3131      0.0120      1.8148      1.0000      1.0000      0.9302      0.9151      0.0259           0
RCH1            C                   950.0000      0.0000    135.0065    282.3131      0.0120      0.9951      1.0000      1.0000      0.9302      0.9151      0.0259           0
RCH1            C                   950.0000      0.0000    135.0065    282.3131      0.0120      1.7035      1.0000      1.0000      0.9302      0.9151      0.0259           0
RCH1            C                   950.0000      0.0000    135.0065    282.3131      0.0120      0.8283      1.0000      1.0000      0.9302      0.9151      0.0259           0
RCH1            C                   950.0000      0.0000    135.0065    282.3131      1.0000      0.7476      1.0000      1.0000      0.9302      0.9151      0.0259           0
RCH1            C                   950.0000      0.0000    135.0065    282.3131      1.0000      3.1447      1.0000      1.0000      0.9302      0.9151      0.0259           0
RCH1            C                   950.0000      0.0000    135.0065    282.3131      1.0000      1.9177      1.0000      1.0000      0.9302      0.9151      0.0259           0
RCH1            C                   950.0000      0.0000    135.0065    282.3131      0.0120      0.6494      1.0000      1.0000      0.9302      0.9151      0.0259           0
[...]
VTT2            D                  2010.0000      0.0000    284.7560    564.5899      1.0000      0.7380      1.0000      1.0000      0.9302      0.9151      0.0259           0
VTT2            D                  2010.0000      0.0000    284.7560    564.5899      1.0000      4.8883      1.0000      1.0000      0.9302      0.9151      0.0259           0
VTT2            D                  2010.0000      0.0000    284.7560    564.5899      1.0000      0.3588      1.0000      1.0000      0.9302      0.9151      0.0259           0
VTT2            D                  2010.0000      0.0000    284.7560    564.5899      1.0000      0.3903      1.0000      1.0000      0.9302      0.9151      0.0259           0
RCH1            C                   950.0000      0.0000    135.0065    282.3131      1.0000      2.3109      1.0000      1.0000      0.9302      0.9151      0.0259           0
VTT2            D                  2010.0000      0.0000    284.7560    564.5899      1.0000      3.3078      1.0000      1.0000      0.9302      0.9151      0.0259           0
VTT2            D                  2010.0000      0.0000    284.7560    564.5899      1.0000      1.0934      1.0000      1.0000      0.9302      0.9151      0.0259           0
VTT2            D                  2010.0000      0.0000    284.7560    564.5899      1.0000      0.2912      1.0000      1.0000      0.9302      0.9151      0.0259           0
ZER1            C                  2010.0000      0.0000    283.0761    484.3160      0.0120      0.3392      1.0000      1.0000      0.9302      0.9151      0.0259           0
VTT2            D                  2010.0000      0.0000    284.7560    564.5899      0.0120      0.2202      1.0000      1.0000      0.9302      0.9151      0.0259           0
VTT2            D                  2010.0000      0.0000    284.7560    564.5899      0.0120      0.1248      1.0000      1.0000      0.9302      0.9151      0.0259           0
VTT2            D                  2010.0000      0.0000    284.7560    564.5899      1.0000      0.9374      1.0000      1.0000      0.9302      0.9151      0.0259           0
RCH1            C                   950.0000      0.0000    135.0065    282.3131      1.0000      0.4169      1.0000      1.0000      0.9302      0.9151      0.0259           0
RCH1            C                   950.0000      0.0000    135.0065    282.3131      0.0120     15.7328      1.0000      1.0000      0.9302      0.9151      0.0259           0
RCH1            C                   950.0000      0.0000    135.0065    282.3131      0.0120      5.5233      1.0000      1.0000      0.9302      0.9151      0.0259           0
RCH1            C                   950.0000      0.0000    135.0065    282.3131      1.0000     17.1781      1.0000      1.0000      0.9302      0.9151      0.0259           0
RCH1            C                   950.0000      0.0000    135.0065    282.3131      0.0120     13.1241      1.0000      1.0000      0.9302      0.9151      0.0259           0
RCH1            C                   950.0000      0.0000    135.0065    282.3131      0.0120      2.2475      1.0000      1.0000      0.9302      0.9151      0.0259           0
RCH1            C                   950.0000      0.0000    135.0065    282.3131      0.0120      5.2310      1.0000      1.0000      0.9302      0.9151      0.0259           0
PTC1            D                  2010.0000      0.0000    287.2427    551.0696      0.0120      0.1898      1.0000      1.0000      0.9302      0.9151      0.0259           0
VTT2            D                  2010.0000      0.0000    284.7560    564.5899      1.0000      0.6147      1.0000      1.0000      0.9302      0.9151      0.0259           0
RCH1            C                   950.0000      0.0000    135.0065    282.3131      0.0120      0.1894      1.0000      1.0000      0.9302      0.9151      0.0259           0
RCH1            C                   950.0000      0.0000    135.0065    282.3131      0.0120      0.2706      1.0000      1.0000      0.9302      0.9151      0.0259           0
RCH1            C                   950.0000      0.0000    135.0065    282.3131      0.0120      0.3481      1.0000      1.0000      0.9302      0.9151      0.0259           0
VTT2            D                  2010.0000      0.0000    284.7560    564.5899      0.0120      2.4870      1.0000      1.0000      0.9302      0.9151      0.0259           0
RCH1            C                   950.0000      0.0000    135.0065    282.3131      0.0120      0.3299      1.0000      1.0000      0.9302      0.9151      0.0259           0
RCH1            C                   950.0000      0.0000    135.0065    282.3131      0.0120      0.4433      1.0000      1.0000      0.9302      0.9151      0.0259           0
VTT2            D                  2010.0000      0.0000    284.7560    564.5899      1.0000      0.9635      1.0000      1.0000      0.9302      0.9151      0.0259           0
VTT2            D                  2010.0000      0.0000    284.7560    564.5899      0.0120      0.7302      1.0000      1.0000      0.9302      0.9151      0.0259           0
RCH1            C                   950.0000      0.0000    135.0065    282.3131      0.0120     16.2335      1.0000      1.0000      0.9302      0.9151      0.0259           0
RCH1            C                   950.0000      0.0000    135.0065    282.3131      0.0120     21.6729      1.0000      1.0000      0.9302      0.9151      0.0259           0
RCH1            C                   950.0000      0.0000    135.0065    282.3131      0.0120     13.8089      1.0000      1.0000      0.9302      0.9151      0.0259           0
RCH1            C                   950.0000      0.0000    135.0065    282.3131      0.0120     14.5006      1.0000      1.0000      0.9302      0.9151      0.0259           0
RCH1            C                   950.0000      0.0000    135.0065    282.3131      0.0120     12.6000      1.0000      1.0000      0.9302      0.9151      0.0259           0
RCH1            C                   950.0000      0.0000    135.0065    282.3131      0.0120     14.2686      1.0000      1.0000      0.9302      0.9151      0.0259           0
RCH1            C                   950.0000      0.0000    135.0065    282.3131      0.0120     17.0054      1.0000      1.0000      0.9302      0.9151      0.0259           0
RCH1            C                   950.0000      0.0000    135.0065    282.3131      1.0000      6.9930      1.0000      1.0000      0.9302      0.9151      0.0259           0
RCH1            C                   950.0000      0.0000    135.0065    282.3131      0.0120      6.8847      1.0000      1.0000      0.9302      0.9151      0.0259           0
GVN1            C                  1050.0000      0.0000    130.3325    264.0605      0.0120      5.5445      1.0000      1.0000      0.9302      0.9151      0.0259           0
RCH1            C                   950.0000      0.0000    135.0065    282.3131      0.0120     13.6568      1.0000      1.0000      0.9302      0.9151      0.0259           0
RMG3            C                  2010.0000      0.0000    312.6441    624.5838      1.0000      0.1125      1.0000      1.0000      0.9302      0.9151      0.0259           0
RMG3            C                  2010.0000      0.0000    312.6441    624.5838      1.0000      0.1173      1.0000      1.0000      0.9302      0.9151      0.0259           0
RMG3            C                  2010.0000      0.0000    312.6441    624.5838      1.0000      0.1041      1.0000      1.0000      0.9302      0.9151      0.0259           0
RMG3            C                  2010.0000      0.0000    312.6441    624.5838      0.0120      6.2116      1.0000      1.0000      0.9302      0.9151      0.0259           0
RMG3            C                  2010.0000      0.0000    312.6441    624.5838      0.0120      2.2893      1.0000      1.0000      0.9302      0.9151      0.0259           0
RCH1            C                   950.0000      0.0000    135.0065    282.3131      0.0120      1.0017      1.0000      1.0000      0.9302      0.9151      0.0259           0
RCH1            C                   950.0000      0.0000    135.0065    282.3131      1.0000      0.1389      1.0000      1.0000      0.9302      0.9151      0.0259           0
RCH1            C                   950.0000      0.0000    135.0065    282.3131      1.0000      1.0015      1.0000      1.0000      0.9302      0.9151      0.0259           0
VTT2            D                  2010.0000      0.0000    284.7560    564.5899      1.0000      0.1356      1.0000      1.0000      0.9302      0.9151      0.0259           0
VTT2            D                  2010.0000      0.0000    284.7560    564.5899      0.0120      0.1555      1.0000      1.0000      0.9302      0.9151      0.0259           0
VTT2            D                  2010.0000      0.0000    284.7560    564.5899      0.0120      0.1492      1.0000      1.0000      0.9302      0.9151      0.0259           0
VTT2            D                  2010.0000      0.0000    284.7560    564.5899      1.0000      0.2904      1.0000      1.0000      0.9302      0.9151      0.0259           0
RMG3            C                  2010.0000      0.0000    312.6441    624.5838      1.0000      0.8396      1.0000      1.0000      0.9302      0.9151      0.0259           0
RCH1            C                   950.0000      0.0000    135.0065    282.3131      1.0000      0.1721      1.0000      1.0000      0.9302      0.9151      0.0259           0
RCH1            C                   950.0000      0.0000    135.0065    282.3131      1.0000      0.1412      1.0000      1.0000      0.9302      0.9151      0.0259           0
RCH1            C                   950.0000      0.0000    135.0065    282.3131      1.0000      0.1728      1.0000      1.0000      0.9302      0.9151      0.0259           0
VTT2            D                  2010.0000      0.0000    284.7560    564.5899      1.0000      0.3718      1.0000      1.0000      0.9302      0.9151      0.0259           0
RCH1            C                   950.0000      0.0000    135.0065    282.3131      1.0000      0.0797      1.0000      1.0000      0.9302      0.9151      0.0259           0
VTT2            D                  2010.0000      0.0000    284.7560    564.5899      1.0000      0.4417      1.0000      1.0000      0.9302      0.9151      0.0259           0
VTT2            D                  2010.0000      0.0000    284.7560    564.5899      1.0000      0.3721      1.0000      1.0000      0.9302      0.9151      0.0259           0
VTT2            D                  2010.0000      0.0000    284.7560    564.5899      1.0000      0.3966      1.0000      1.0000      0.9302      0.9151      0.0259           0
VTT2            D                  2010.0000      0.0000    284.7560    564.5899      1.0000      0.6297      1.0000      1.0000      0.9302      0.9151      0.0259           0
RMG3            C                  2010.0000      0.0000    312.6441    624.5838      1.0000      0.4535      1.0000      1.0000      0.9302      0.9151      0.0259           0
RCH1            C                   950.0000      0.0000    135.0065    282.3131      0.0120      0.1778      1.0000      1.0000      0.9302      0.9151      0.0259           0
RCH1            C                   950.0000      0.0000    135.0065    282.3131      0.0120      0.2137      1.0000      1.0000      0.9302      0.9151      0.0259           0
RMG3            C                  2010.0000      0.0000    312.6441    624.5838      1.0000      0.5224      1.0000      1.0000      0.9302      0.9151      0.0259           0
PTC1            D                  2010.0000      0.0000    287.2427    551.0696      0.0120      0.1331      1.0000      1.0000      0.9302      0.9151      0.0259           0
PTC1            D                  2010.0000      0.0000    287.2427    551.0696      0.0120      0.1441      1.0000      1.0000      0.9302      0.9151      0.0259           0
PTC1            D                  2010.0000      0.0000    287.2427    551.0696      0.0120      0.1425      1.0000      1.0000      0.9302      0.9151      0.0259           0
RCH1            C                   950.0000      0.0000    135.0065    282.3131      0.0120      0.3535      1.0000      1.0000      0.9302      0.9151      0.0259           0
RCH1            C                   950.0000      0.0000    135.0065    282.3131      0.0120      0.2133      1.0000      1.0000      0.9302      0.9151      0.0259           0
RCH1            C                   950.0000      0.0000    135.0065    282.3131      0.0120     13.5705      1.0000      1.0000      0.9302      0.9151      0.0259           0
RCH1            C                   950.0000      0.0000    135.0065    282.3131      0.0120      0.3125      1.0000      1.0000      0.9302      0.9151      0.0259           0
VTT2            D                  2010.0000      0.0000    284.7560    564.5899      1.0000      1.8248      1.0000      1.0000      0.9302      0.9151      0.0259           0
CFC1            C                  2010.0000      0.0000    279.0413    743.9039      1.0000      0.1156      1.0000      1.0000      0.9302      0.9151      0.0259           0
SPT1            C                  2010.0000      0.0000    271.5281    580.5573      0.0120      2.2555      1.0000      1.0000      0.9302      0.9151      0.0259           0
VTT2            D                  2010.0000      0.0000    284.7560    564.5899      1.0000      0.1862      1.0000      1.0000      0.9302      0.9151      0.0259           0
VTT2            D                  2010.0000      0.0000    284.7560    564.5899      1.0000      0.1838      1.0000      1.0000      0.9302      0.9151      0.0259           0
VTT2            D                  2010.0000      0.0000    284.7560    564.5899      1.0000      0.2239      1.0000      1.0000      0.9302      0.9151      0.0259           0
ZER1            C                  2010.0000      0.0000    283.0761    484.3160      1.0000      0.1816      1.0000      1.0000      0.9302      0.9151      0.0259           0
LPO1            C                  2010.0000      0.0000    286.8650    574.1059      0.0120      0.5100      1.0000      1.0000      0.9302      0.9151      0.0259           0
ZER1            C                  2010.0000      0.0000    283.0761    484.3160      0.0120      0.3907      1.0000      1.0000      0.9302      0.9151      0.0259           0
ZER1            C                  2010.0000      0.0000    283.0761    484.3160      0.0120      0.2610      1.0000      1.0000      0.9302      0.9151      0.0259           0
ZER1            C                  2010.0000      0.0000    283.0761    484.3160      1.0000      0.6035      1.0000      1.0000      0.9302      0.9151      0.0259           0
VTT2            D                  2010.0000      0.0000    284.7560    564.5899      1.0000      0.7307      1.0000      1.0000      0.9302      0.9151      0.0259           0
VTT2            D                  2010.0000      0.0000    284.7560    564.5899      1.0000      0.2181      1.0000      1.0000      0.9302      0.9151      0.0259           0
RCH1            C                   950.0000      0.0000    135.0065    282.3131      0.0120     12.4905      1.0000      1.0000      0.9302      0.9151      0.0259           0
RCH1            C                   950.0000      0.0000    135.0065    282.3131      0.0120      8.2701      1.0000      1.0000      0.9302      0.9151      0.0259           0
RCH1            C                   950.0000      0.0000    135.0065    282.3131      0.0120     11.7590      1.0000      1.0000      0.9302      0.9151      0.0259           0
RCH1            C                   950.0000      0.0000    135.0065    282.3131      0.0120      6.7462      1.0000      1.0000      0.9302      0.9151      0.0259           0
SPT1            C                  2010.0000      0.0000    271.5281    580.5573      1.0000      0.1832      1.0000      1.0000      0.9302      0.9151      0.0259           0
SPT1            C                  2010.0000      0.0000    271.5281    580.5573      1.0000      0.1276      1.0000      1.0000      0.9302      0.9151      0.0259           0
RCH1            C                   950.0000      0.0000    135.0065    282.3131      1.0000      0.6222      1.0000      1.0000      0.9302      0.9151      0.0259           0
VTT2            D                  2010.0000      0.0000    284.7560    564.5899      1.0000      0.6232      1.0000      1.0000      0.9302      0.9151      0.0259           0
VTT2            D                  2010.0000      0.0000    284.7560    564.5899      0.0120      2.2267      1.0000      1.0000      0.9302      0.9151      0.0259           0
VTT2            D                  2010.0000      0.0000    284.7560    564.5899      0.0120      0.2591      1.0000      1.0000      0.9302      0.9151      0.0259           0
VTT2            D                  2010.0000      0.0000    284.7560    564.5899      0.0120      1.5511      1.0000      1.0000      0.9302      0.9151      0.0259           0
RMG3            C                  2010.0000      0.0000    312.6441    624.5838      1.0000      0.6611      1.0000      1.0000      0.9302      0.9151      0.0259           0
VTT2            D                  2010.0000      0.0000    284.7560    564.5899      0.0120      0.7728      1.0000      1.0000      0.9302      0.9151      0.0259           0
VTT2            D                  2010.0000      0.0000    284.7560    564.5899      0.0120      0.4976      1.0000      1.0000      0.9302      0.9151      0.0259           0
VTT2            D                  2010.0000      0.0000    284.7560    564.5899      0.0120      1.9143      1.0000      1.0000      0.9302      0.9151      0.0259           0
VTT2            D                  2010.0000      0.0000    284.7560    564.5899      0.0120      1.0444      1.0000      1.0000      0.9302      0.9151      0.0259           0
RCH1            C                   950.0000      0.0000    135.0065    282.3131      0.0120      2.4436      1.0000      1.0000      0.9302      0.9151      0.0259           0
RCH1            C                   950.0000      0.0000    135.0065    282.3131      0.0120      6.3012      1.0000      1.0000      0.9302      0.9151      0.0259           0
RCH1            C                   950.0000      0.0000    135.0065    282.3131      0.0120      4.6176      1.0000      1.0000      0.9302      0.9151      0.0259           0
RCH1            C                   950.0000      0.0000    135.0065    282.3131      0.0120      4.2036      1.0000      1.0000      0.9302      0.9151      0.0259           0
SPT1            C                  2010.0000      0.0000    271.5281    580.5573      1.0000      2.6752      1.0000      1.0000      0.9302      0.9151      0.0259           0
RCH1            C                   950.0000      0.0000    135.0065    282.3131      1.0000      0.2960      1.0000      1.0000      0.9302      0.9151      0.0259           0
RCH1            C                   950.0000      0.0000    135.0065    282.3131      0.0120      1.5921      1.0000      1.0000      0.9302      0.9151      0.0259           0
RCH1            C                   950.0000      0.0000    135.0065    282.3131      0.0120      4.2953      1.0000      1.0000      0.9302      0.9151      0.0259           0
GVN1            C                  1050.0000      0.0000    130.3325    264.0605      0.0120      4.8296      1.0000      1.0000      0.9302      0.9151      0.0259           0
RCH1            C                   950.0000      0.0000    135.0065    282.3131      0.0120      0.3478      1.0000      1.0000      0.9302      0.9151      0.0259           0
