                   SWAT+               
             Revision 61.0            
      Soil & Water Assessment Tool    
               PC Version             
    Program reading . . . executing


  Date of Sim  10/29/2024 Time  21:15:16
 reading from precipitation file         Time  21:15:16
 reading from temperature file           Time  21:15:16
 reading from solar radiation file       Time  21:15:17
 reading from relative humidity file     Time  21:15:17
 reading from wind file                  Time  21:15:17
 reading from wgn file                   Time  21:15:17
 reading from wx station file            Time  21:15:17
  Original Simulation        1   1  2002 Yr    1 of   19 Time  21:15:21
  Original Simulation        1   2  2002 Yr    1 of   19 Time  21:15:21
  Original Simulation        1   3  2002 Yr    1 of   19 Time  21:15:21
  Original Simulation        1   4  2002 Yr    1 of   19 Time  21:15:21
  Original Simulation        1   5  2002 Yr    1 of   19 Time  21:15:21
  Original Simulation        1   6  2002 Yr    1 of   19 Time  21:15:21
  Original Simulation        1   7  2002 Yr    1 of   19 Time  21:15:21
  Original Simulation        1   8  2002 Yr    1 of   19 Time  21:15:22
  Original Simulation        1   9  2002 Yr    1 of   19 Time  21:15:22
  Original Simulation        1  10  2002 Yr    1 of   19 Time  21:15:22
  Original Simulation        1  11  2002 Yr    1 of   19 Time  21:15:22
  Original Simulation        1  12  2002 Yr    1 of   19 Time  21:15:22
  Original Simulation        1  13  2002 Yr    1 of   19 Time  21:15:22
  Original Simulation        1  14  2002 Yr    1 of   19 Time  21:15:22
  Original Simulation        1  15  2002 Yr    1 of   19 Time  21:15:22
  Original Simulation        1  16  2002 Yr    1 of   19 Time  21:15:23
  Original Simulation        1  17  2002 Yr    1 of   19 Time  21:15:23
  Original Simulation        1  18  2002 Yr    1 of   19 Time  21:15:23
  Original Simulation        1  19  2002 Yr    1 of   19 Time  21:15:23
  Original Simulation        1  20  2002 Yr    1 of   19 Time  21:15:23
  Original Simulation        1  21  2002 Yr    1 of   19 Time  21:15:23
  Original Simulation        1  22  2002 Yr    1 of   19 Time  21:15:23
  Original Simulation        1  23  2002 Yr    1 of   19 Time  21:15:24
  Original Simulation        1  24  2002 Yr    1 of   19 Time  21:15:24
  Original Simulation        1  25  2002 Yr    1 of   19 Time  21:15:24
  Original Simulation        1  26  2002 Yr    1 of   19 Time  21:15:24
  Original Simulation        1  27  2002 Yr    1 of   19 Time  21:15:24
  Original Simulation        1  28  2002 Yr    1 of   19 Time  21:15:24
  Original Simulation        1  29  2002 Yr    1 of   19 Time  21:15:24
  Original Simulation        1  30  2002 Yr    1 of   19 Time  21:15:24
  Original Simulation        1  31  2002 Yr    1 of   19 Time  21:15:25
  Original Simulation        2   1  2002 Yr    1 of   19 Time  21:15:25
  Original Simulation        2   2  2002 Yr    1 of   19 Time  21:15:25
  Original Simulation        2   3  2002 Yr    1 of   19 Time  21:15:25
  Original Simulation        2   4  2002 Yr    1 of   19 Time  21:15:25
  Original Simulation        2   5  2002 Yr    1 of   19 Time  21:15:25
  Original Simulation        2   6  2002 Yr    1 of   19 Time  21:15:25
  Original Simulation        2   7  2002 Yr    1 of   19 Time  21:15:25
  Original Simulation        2   8  2002 Yr    1 of   19 Time  21:15:26
  Original Simulation        2   9  2002 Yr    1 of   19 Time  21:15:26
  Original Simulation        2  10  2002 Yr    1 of   19 Time  21:15:26
  Original Simulation        2  11  2002 Yr    1 of   19 Time  21:15:26
  Original Simulation        2  12  2002 Yr    1 of   19 Time  21:15:26
  Original Simulation        2  13  2002 Yr    1 of   19 Time  21:15:26
  Original Simulation        2  14  2002 Yr    1 of   19 Time  21:15:26
  Original Simulation        2  15  2002 Yr    1 of   19 Time  21:15:27
  Original Simulation        2  16  2002 Yr    1 of   19 Time  21:15:27
  Original Simulation        2  17  2002 Yr    1 of   19 Time  21:15:27
  Original Simulation        2  18  2002 Yr    1 of   19 Time  21:15:27
  Original Simulation        2  19  2002 Yr    1 of   19 Time  21:15:27
  Original Simulation        2  20  2002 Yr    1 of   19 Time  21:15:27
  Original Simulation        2  21  2002 Yr    1 of   19 Time  21:15:27
  Original Simulation        2  22  2002 Yr    1 of   19 Time  21:15:28
  Original Simulation        2  23  2002 Yr    1 of   19 Time  21:15:28
  Original Simulation        2  24  2002 Yr    1 of   19 Time  21:15:28
  Original Simulation        2  25  2002 Yr    1 of   19 Time  21:15:28
  Original Simulation        2  26  2002 Yr    1 of   19 Time  21:15:28
  Original Simulation        2  27  2002 Yr    1 of   19 Time  21:15:28
  Original Simulation        2  28  2002 Yr    1 of   19 Time  21:15:28
  Original Simulation        3   1  2002 Yr    1 of   19 Time  21:15:28
  Original Simulation        3   2  2002 Yr    1 of   19 Time  21:15:29
  Original Simulation        3   3  2002 Yr    1 of   19 Time  21:15:29
  Original Simulation        3   4  2002 Yr    1 of   19 Time  21:15:29
  Original Simulation        3   5  2002 Yr    1 of   19 Time  21:15:29
  Original Simulation        3   6  2002 Yr    1 of   19 Time  21:15:29
  Original Simulation        3   7  2002 Yr    1 of   19 Time  21:15:29
  Original Simulation        3   8  2002 Yr    1 of   19 Time  21:15:29
  Original Simulation        3   9  2002 Yr    1 of   19 Time  21:15:30
  Original Simulation        3  10  2002 Yr    1 of   19 Time  21:15:30
  Original Simulation        3  11  2002 Yr    1 of   19 Time  21:15:30
  Original Simulation        3  12  2002 Yr    1 of   19 Time  21:15:30
  Original Simulation        3  13  2002 Yr    1 of   19 Time  21:15:30
  Original Simulation        3  14  2002 Yr    1 of   19 Time  21:15:30
  Original Simulation        3  15  2002 Yr    1 of   19 Time  21:15:30
  Original Simulation        3  16  2002 Yr    1 of   19 Time  21:15:31
  Original Simulation        3  17  2002 Yr    1 of   19 Time  21:15:31
  Original Simulation        3  18  2002 Yr    1 of   19 Time  21:15:31
  Original Simulation        3  19  2002 Yr    1 of   19 Time  21:15:31
  Original Simulation        3  20  2002 Yr    1 of   19 Time  21:15:31
  Original Simulation        3  21  2002 Yr    1 of   19 Time  21:15:31
  Original Simulation        3  22  2002 Yr    1 of   19 Time  21:15:31
  Original Simulation        3  23  2002 Yr    1 of   19 Time  21:15:32
  Original Simulation        3  24  2002 Yr    1 of   19 Time  21:15:32
  Original Simulation        3  25  2002 Yr    1 of   19 Time  21:15:32
  Original Simulation        3  26  2002 Yr    1 of   19 Time  21:15:32
  Original Simulation        3  27  2002 Yr    1 of   19 Time  21:15:32
  Original Simulation        3  28  2002 Yr    1 of   19 Time  21:15:32
  Original Simulation        3  29  2002 Yr    1 of   19 Time  21:15:32
  Original Simulation        3  30  2002 Yr    1 of   19 Time  21:15:32
  Original Simulation        3  31  2002 Yr    1 of   19 Time  21:15:33
  Original Simulation        4   1  2002 Yr    1 of   19 Time  21:15:33
  Original Simulation        4   2  2002 Yr    1 of   19 Time  21:15:33
  Original Simulation        4   3  2002 Yr    1 of   19 Time  21:15:33
  Original Simulation        4   4  2002 Yr    1 of   19 Time  21:15:33
  Original Simulation        4   5  2002 Yr    1 of   19 Time  21:15:33
  Original Simulation        4   6  2002 Yr    1 of   19 Time  21:15:33
  Original Simulation        4   7  2002 Yr    1 of   19 Time  21:15:34
  Original Simulation        4   8  2002 Yr    1 of   19 Time  21:15:34
  Original Simulation        4   9  2002 Yr    1 of   19 Time  21:15:34
  Original Simulation        4  10  2002 Yr    1 of   19 Time  21:15:34
  Original Simulation        4  11  2002 Yr    1 of   19 Time  21:15:34
  Original Simulation        4  12  2002 Yr    1 of   19 Time  21:15:34
  Original Simulation        4  13  2002 Yr    1 of   19 Time  21:15:34
  Original Simulation        4  14  2002 Yr    1 of   19 Time  21:15:35
  Original Simulation        4  15  2002 Yr    1 of   19 Time  21:15:35
  Original Simulation        4  16  2002 Yr    1 of   19 Time  21:15:35
  Original Simulation        4  17  2002 Yr    1 of   19 Time  21:15:35
  Original Simulation        4  18  2002 Yr    1 of   19 Time  21:15:35
  Original Simulation        4  19  2002 Yr    1 of   19 Time  21:15:35
  Original Simulation        4  20  2002 Yr    1 of   19 Time  21:15:35
  Original Simulation        4  21  2002 Yr    1 of   19 Time  21:15:35
  Original Simulation        4  22  2002 Yr    1 of   19 Time  21:15:36
  Original Simulation        4  23  2002 Yr    1 of   19 Time  21:15:36
  Original Simulation        4  24  2002 Yr    1 of   19 Time  21:15:36
  Original Simulation        4  25  2002 Yr    1 of   19 Time  21:15:36
  Original Simulation        4  26  2002 Yr    1 of   19 Time  21:15:36
  Original Simulation        4  27  2002 Yr    1 of   19 Time  21:15:36
  Original Simulation        4  28  2002 Yr    1 of   19 Time  21:15:36
  Original Simulation        4  29  2002 Yr    1 of   19 Time  21:15:37
  Original Simulation        4  30  2002 Yr    1 of   19 Time  21:15:37
  Original Simulation        5   1  2002 Yr    1 of   19 Time  21:15:37
  Original Simulation        5   2  2002 Yr    1 of   19 Time  21:15:37
  Original Simulation        5   3  2002 Yr    1 of   19 Time  21:15:37
  Original Simulation        5   4  2002 Yr    1 of   19 Time  21:15:37
  Original Simulation        5   5  2002 Yr    1 of   19 Time  21:15:37
  Original Simulation        5   6  2002 Yr    1 of   19 Time  21:15:38
  Original Simulation        5   7  2002 Yr    1 of   19 Time  21:15:38
  Original Simulation        5   8  2002 Yr    1 of   19 Time  21:15:38
  Original Simulation        5   9  2002 Yr    1 of   19 Time  21:15:38
  Original Simulation        5  10  2002 Yr    1 of   19 Time  21:15:38
  Original Simulation        5  11  2002 Yr    1 of   19 Time  21:15:38
  Original Simulation        5  12  2002 Yr    1 of   19 Time  21:15:38
  Original Simulation        5  13  2002 Yr    1 of   19 Time  21:15:39
  Original Simulation        5  14  2002 Yr    1 of   19 Time  21:15:39
  Original Simulation        5  15  2002 Yr    1 of   19 Time  21:15:39
  Original Simulation        5  16  2002 Yr    1 of   19 Time  21:15:39
  Original Simulation        5  17  2002 Yr    1 of   19 Time  21:15:39
  Original Simulation        5  18  2002 Yr    1 of   19 Time  21:15:39
  Original Simulation        5  19  2002 Yr    1 of   19 Time  21:15:39
  Original Simulation        5  20  2002 Yr    1 of   19 Time  21:15:39
  Original Simulation        5  21  2002 Yr    1 of   19 Time  21:15:40
  Original Simulation        5  22  2002 Yr    1 of   19 Time  21:15:40
  Original Simulation        5  23  2002 Yr    1 of   19 Time  21:15:40
  Original Simulation        5  24  2002 Yr    1 of   19 Time  21:15:40
  Original Simulation        5  25  2002 Yr    1 of   19 Time  21:15:40
  Original Simulation        5  26  2002 Yr    1 of   19 Time  21:15:40
  Original Simulation        5  27  2002 Yr    1 of   19 Time  21:15:40
  Original Simulation        5  28  2002 Yr    1 of   19 Time  21:15:41
  Original Simulation        5  29  2002 Yr    1 of   19 Time  21:15:41
  Original Simulation        5  30  2002 Yr    1 of   19 Time  21:15:41
  Original Simulation        5  31  2002 Yr    1 of   19 Time  21:15:41
  Original Simulation        6   1  2002 Yr    1 of   19 Time  21:15:41
  Original Simulation        6   2  2002 Yr    1 of   19 Time  21:15:41
  Original Simulation        6   3  2002 Yr    1 of   19 Time  21:15:41
  Original Simulation        6   4  2002 Yr    1 of   19 Time  21:15:42
  Original Simulation        6   5  2002 Yr    1 of   19 Time  21:15:42
  Original Simulation        6   6  2002 Yr    1 of   19 Time  21:15:42
  Original Simulation        6   7  2002 Yr    1 of   19 Time  21:15:42
  Original Simulation        6   8  2002 Yr    1 of   19 Time  21:15:42
  Original Simulation        6   9  2002 Yr    1 of   19 Time  21:15:42
  Original Simulation        6  10  2002 Yr    1 of   19 Time  21:15:42
  Original Simulation        6  11  2002 Yr    1 of   19 Time  21:15:43
  Original Simulation        6  12  2002 Yr    1 of   19 Time  21:15:43
  Original Simulation        6  13  2002 Yr    1 of   19 Time  21:15:43
  Original Simulation        6  14  2002 Yr    1 of   19 Time  21:15:43
  Original Simulation        6  15  2002 Yr    1 of   19 Time  21:15:43
  Original Simulation        6  16  2002 Yr    1 of   19 Time  21:15:43
  Original Simulation        6  17  2002 Yr    1 of   19 Time  21:15:43
  Original Simulation        6  18  2002 Yr    1 of   19 Time  21:15:44
  Original Simulation        6  19  2002 Yr    1 of   19 Time  21:15:44
  Original Simulation        6  20  2002 Yr    1 of   19 Time  21:15:44
  Original Simulation        6  21  2002 Yr    1 of   19 Time  21:15:44
  Original Simulation        6  22  2002 Yr    1 of   19 Time  21:15:44
  Original Simulation        6  23  2002 Yr    1 of   19 Time  21:15:44
  Original Simulation        6  24  2002 Yr    1 of   19 Time  21:15:44
  Original Simulation        6  25  2002 Yr    1 of   19 Time  21:15:44
  Original Simulation        6  26  2002 Yr    1 of   19 Time  21:15:45
  Original Simulation        6  27  2002 Yr    1 of   19 Time  21:15:45
  Original Simulation        6  28  2002 Yr    1 of   19 Time  21:15:45
  Original Simulation        6  29  2002 Yr    1 of   19 Time  21:15:45
  Original Simulation        6  30  2002 Yr    1 of   19 Time  21:15:45
  Original Simulation        7   1  2002 Yr    1 of   19 Time  21:15:45
  Original Simulation        7   2  2002 Yr    1 of   19 Time  21:15:45
  Original Simulation        7   3  2002 Yr    1 of   19 Time  21:15:46
  Original Simulation        7   4  2002 Yr    1 of   19 Time  21:15:46
  Original Simulation        7   5  2002 Yr    1 of   19 Time  21:15:46
  Original Simulation        7   6  2002 Yr    1 of   19 Time  21:15:46
  Original Simulation        7   7  2002 Yr    1 of   19 Time  21:15:46
  Original Simulation        7   8  2002 Yr    1 of   19 Time  21:15:46
  Original Simulation        7   9  2002 Yr    1 of   19 Time  21:15:46
  Original Simulation        7  10  2002 Yr    1 of   19 Time  21:15:47
  Original Simulation        7  11  2002 Yr    1 of   19 Time  21:15:47
  Original Simulation        7  12  2002 Yr    1 of   19 Time  21:15:47
  Original Simulation        7  13  2002 Yr    1 of   19 Time  21:15:47
  Original Simulation        7  14  2002 Yr    1 of   19 Time  21:15:47
  Original Simulation        7  15  2002 Yr    1 of   19 Time  21:15:47
  Original Simulation        7  16  2002 Yr    1 of   19 Time  21:15:47
  Original Simulation        7  17  2002 Yr    1 of   19 Time  21:15:48
  Original Simulation        7  18  2002 Yr    1 of   19 Time  21:15:48
  Original Simulation        7  19  2002 Yr    1 of   19 Time  21:15:48
  Original Simulation        7  20  2002 Yr    1 of   19 Time  21:15:48
  Original Simulation        7  21  2002 Yr    1 of   19 Time  21:15:48
  Original Simulation        7  22  2002 Yr    1 of   19 Time  21:15:48
  Original Simulation        7  23  2002 Yr    1 of   19 Time  21:15:48
  Original Simulation        7  24  2002 Yr    1 of   19 Time  21:15:48
  Original Simulation        7  25  2002 Yr    1 of   19 Time  21:15:49
  Original Simulation        7  26  2002 Yr    1 of   19 Time  21:15:49
  Original Simulation        7  27  2002 Yr    1 of   19 Time  21:15:49
  Original Simulation        7  28  2002 Yr    1 of   19 Time  21:15:49
  Original Simulation        7  29  2002 Yr    1 of   19 Time  21:15:49
  Original Simulation        7  30  2002 Yr    1 of   19 Time  21:15:49
  Original Simulation        7  31  2002 Yr    1 of   19 Time  21:15:49
  Original Simulation        8   1  2002 Yr    1 of   19 Time  21:15:50
  Original Simulation        8   2  2002 Yr    1 of   19 Time  21:15:50
  Original Simulation        8   3  2002 Yr    1 of   19 Time  21:15:50
  Original Simulation        8   4  2002 Yr    1 of   19 Time  21:15:50
  Original Simulation        8   5  2002 Yr    1 of   19 Time  21:15:50
  Original Simulation        8   6  2002 Yr    1 of   19 Time  21:15:50
  Original Simulation        8   7  2002 Yr    1 of   19 Time  21:15:50
  Original Simulation        8   8  2002 Yr    1 of   19 Time  21:15:51
  Original Simulation        8   9  2002 Yr    1 of   19 Time  21:15:51
  Original Simulation        8  10  2002 Yr    1 of   19 Time  21:15:51
  Original Simulation        8  11  2002 Yr    1 of   19 Time  21:15:51
  Original Simulation        8  12  2002 Yr    1 of   19 Time  21:15:51
  Original Simulation        8  13  2002 Yr    1 of   19 Time  21:15:51
  Original Simulation        8  14  2002 Yr    1 of   19 Time  21:15:51
  Original Simulation        8  15  2002 Yr    1 of   19 Time  21:15:52
  Original Simulation        8  16  2002 Yr    1 of   19 Time  21:15:52
  Original Simulation        8  17  2002 Yr    1 of   19 Time  21:15:52
  Original Simulation        8  18  2002 Yr    1 of   19 Time  21:15:52
  Original Simulation        8  19  2002 Yr    1 of   19 Time  21:15:52
  Original Simulation        8  20  2002 Yr    1 of   19 Time  21:15:52
  Original Simulation        8  21  2002 Yr    1 of   19 Time  21:15:52
  Original Simulation        8  22  2002 Yr    1 of   19 Time  21:15:52
  Original Simulation        8  23  2002 Yr    1 of   19 Time  21:15:53
  Original Simulation        8  24  2002 Yr    1 of   19 Time  21:15:53
  Original Simulation        8  25  2002 Yr    1 of   19 Time  21:15:53
  Original Simulation        8  26  2002 Yr    1 of   19 Time  21:15:53
  Original Simulation        8  27  2002 Yr    1 of   19 Time  21:15:53
  Original Simulation        8  28  2002 Yr    1 of   19 Time  21:15:53
  Original Simulation        8  29  2002 Yr    1 of   19 Time  21:15:53
  Original Simulation        8  30  2002 Yr    1 of   19 Time  21:15:54
  Original Simulation        8  31  2002 Yr    1 of   19 Time  21:15:54
  Original Simulation        9   1  2002 Yr    1 of   19 Time  21:15:54
  Original Simulation        9   2  2002 Yr    1 of   19 Time  21:15:54
  Original Simulation        9   3  2002 Yr    1 of   19 Time  21:15:54
  Original Simulation        9   4  2002 Yr    1 of   19 Time  21:15:54
  Original Simulation        9   5  2002 Yr    1 of   19 Time  21:15:54
  Original Simulation        9   6  2002 Yr    1 of   19 Time  21:15:55
  Original Simulation        9   7  2002 Yr    1 of   19 Time  21:15:55
  Original Simulation        9   8  2002 Yr    1 of   19 Time  21:15:55
  Original Simulation        9   9  2002 Yr    1 of   19 Time  21:15:55
  Original Simulation        9  10  2002 Yr    1 of   19 Time  21:15:55
  Original Simulation        9  11  2002 Yr    1 of   19 Time  21:15:55
  Original Simulation        9  12  2002 Yr    1 of   19 Time  21:15:55
  Original Simulation        9  13  2002 Yr    1 of   19 Time  21:15:56
  Original Simulation        9  14  2002 Yr    1 of   19 Time  21:15:56
  Original Simulation        9  15  2002 Yr    1 of   19 Time  21:15:56
  Original Simulation        9  16  2002 Yr    1 of   19 Time  21:15:56
  Original Simulation        9  17  2002 Yr    1 of   19 Time  21:15:56
  Original Simulation        9  18  2002 Yr    1 of   19 Time  21:15:56
  Original Simulation        9  19  2002 Yr    1 of   19 Time  21:15:56
  Original Simulation        9  20  2002 Yr    1 of   19 Time  21:15:56
  Original Simulation        9  21  2002 Yr    1 of   19 Time  21:15:57
  Original Simulation        9  22  2002 Yr    1 of   19 Time  21:15:57
  Original Simulation        9  23  2002 Yr    1 of   19 Time  21:15:57
  Original Simulation        9  24  2002 Yr    1 of   19 Time  21:15:57
  Original Simulation        9  25  2002 Yr    1 of   19 Time  21:15:57
  Original Simulation        9  26  2002 Yr    1 of   19 Time  21:15:57
  Original Simulation        9  27  2002 Yr    1 of   19 Time  21:15:57
  Original Simulation        9  28  2002 Yr    1 of   19 Time  21:15:58
  Original Simulation        9  29  2002 Yr    1 of   19 Time  21:15:58
  Original Simulation        9  30  2002 Yr    1 of   19 Time  21:15:58
  Original Simulation       10   1  2002 Yr    1 of   19 Time  21:15:58
  Original Simulation       10   2  2002 Yr    1 of   19 Time  21:15:58
  Original Simulation       10   3  2002 Yr    1 of   19 Time  21:15:58
  Original Simulation       10   4  2002 Yr    1 of   19 Time  21:15:58
  Original Simulation       10   5  2002 Yr    1 of   19 Time  21:15:59
  Original Simulation       10   6  2002 Yr    1 of   19 Time  21:15:59
  Original Simulation       10   7  2002 Yr    1 of   19 Time  21:15:59
  Original Simulation       10   8  2002 Yr    1 of   19 Time  21:15:59
  Original Simulation       10   9  2002 Yr    1 of   19 Time  21:15:59
  Original Simulation       10  10  2002 Yr    1 of   19 Time  21:15:59
  Original Simulation       10  11  2002 Yr    1 of   19 Time  21:15:59
  Original Simulation       10  12  2002 Yr    1 of   19 Time  21:16: 0
  Original Simulation       10  13  2002 Yr    1 of   19 Time  21:16: 0
  Original Simulation       10  14  2002 Yr    1 of   19 Time  21:16: 0
  Original Simulation       10  15  2002 Yr    1 of   19 Time  21:16: 0
  Original Simulation       10  16  2002 Yr    1 of   19 Time  21:16: 0
  Original Simulation       10  17  2002 Yr    1 of   19 Time  21:16: 0
  Original Simulation       10  18  2002 Yr    1 of   19 Time  21:16: 0
  Original Simulation       10  19  2002 Yr    1 of   19 Time  21:16: 0
  Original Simulation       10  20  2002 Yr    1 of   19 Time  21:16: 1
  Original Simulation       10  21  2002 Yr    1 of   19 Time  21:16: 1
  Original Simulation       10  22  2002 Yr    1 of   19 Time  21:16: 1
  Original Simulation       10  23  2002 Yr    1 of   19 Time  21:16: 1
  Original Simulation       10  24  2002 Yr    1 of   19 Time  21:16: 1
  Original Simulation       10  25  2002 Yr    1 of   19 Time  21:16: 1
  Original Simulation       10  26  2002 Yr    1 of   19 Time  21:16: 1
  Original Simulation       10  27  2002 Yr    1 of   19 Time  21:16: 2
  Original Simulation       10  28  2002 Yr    1 of   19 Time  21:16: 2
  Original Simulation       10  29  2002 Yr    1 of   19 Time  21:16: 2
  Original Simulation       10  30  2002 Yr    1 of   19 Time  21:16: 2
  Original Simulation       10  31  2002 Yr    1 of   19 Time  21:16: 2
  Original Simulation       11   1  2002 Yr    1 of   19 Time  21:16: 2
  Original Simulation       11   2  2002 Yr    1 of   19 Time  21:16: 2
  Original Simulation       11   3  2002 Yr    1 of   19 Time  21:16: 3
  Original Simulation       11   4  2002 Yr    1 of   19 Time  21:16: 3
  Original Simulation       11   5  2002 Yr    1 of   19 Time  21:16: 3
  Original Simulation       11   6  2002 Yr    1 of   19 Time  21:16: 3
  Original Simulation       11   7  2002 Yr    1 of   19 Time  21:16: 3
  Original Simulation       11   8  2002 Yr    1 of   19 Time  21:16: 3
  Original Simulation       11   9  2002 Yr    1 of   19 Time  21:16: 3
  Original Simulation       11  10  2002 Yr    1 of   19 Time  21:16: 4
  Original Simulation       11  11  2002 Yr    1 of   19 Time  21:16: 4
  Original Simulation       11  12  2002 Yr    1 of   19 Time  21:16: 4
  Original Simulation       11  13  2002 Yr    1 of   19 Time  21:16: 4
  Original Simulation       11  14  2002 Yr    1 of   19 Time  21:16: 4
  Original Simulation       11  15  2002 Yr    1 of   19 Time  21:16: 4
  Original Simulation       11  16  2002 Yr    1 of   19 Time  21:16: 4
  Original Simulation       11  17  2002 Yr    1 of   19 Time  21:16: 4
  Original Simulation       11  18  2002 Yr    1 of   19 Time  21:16: 5
  Original Simulation       11  19  2002 Yr    1 of   19 Time  21:16: 5
  Original Simulation       11  20  2002 Yr    1 of   19 Time  21:16: 5
  Original Simulation       11  21  2002 Yr    1 of   19 Time  21:16: 5
  Original Simulation       11  22  2002 Yr    1 of   19 Time  21:16: 5
  Original Simulation       11  23  2002 Yr    1 of   19 Time  21:16: 5
  Original Simulation       11  24  2002 Yr    1 of   19 Time  21:16: 5
  Original Simulation       11  25  2002 Yr    1 of   19 Time  21:16: 6
  Original Simulation       11  26  2002 Yr    1 of   19 Time  21:16: 6
  Original Simulation       11  27  2002 Yr    1 of   19 Time  21:16: 6
  Original Simulation       11  28  2002 Yr    1 of   19 Time  21:16: 6
  Original Simulation       11  29  2002 Yr    1 of   19 Time  21:16: 6
  Original Simulation       11  30  2002 Yr    1 of   19 Time  21:16: 6
  Original Simulation       12   1  2002 Yr    1 of   19 Time  21:16: 6
  Original Simulation       12   2  2002 Yr    1 of   19 Time  21:16: 7
  Original Simulation       12   3  2002 Yr    1 of   19 Time  21:16: 7
  Original Simulation       12   4  2002 Yr    1 of   19 Time  21:16: 7
  Original Simulation       12   5  2002 Yr    1 of   19 Time  21:16: 7
  Original Simulation       12   6  2002 Yr    1 of   19 Time  21:16: 7
  Original Simulation       12   7  2002 Yr    1 of   19 Time  21:16: 7
  Original Simulation       12   8  2002 Yr    1 of   19 Time  21:16: 7
  Original Simulation       12   9  2002 Yr    1 of   19 Time  21:16: 7
  Original Simulation       12  10  2002 Yr    1 of   19 Time  21:16: 8
  Original Simulation       12  11  2002 Yr    1 of   19 Time  21:16: 8
  Original Simulation       12  12  2002 Yr    1 of   19 Time  21:16: 8
  Original Simulation       12  13  2002 Yr    1 of   19 Time  21:16: 8
  Original Simulation       12  14  2002 Yr    1 of   19 Time  21:16: 8
  Original Simulation       12  15  2002 Yr    1 of   19 Time  21:16: 8
  Original Simulation       12  16  2002 Yr    1 of   19 Time  21:16: 8
  Original Simulation       12  17  2002 Yr    1 of   19 Time  21:16: 9
  Original Simulation       12  18  2002 Yr    1 of   19 Time  21:16: 9
  Original Simulation       12  19  2002 Yr    1 of   19 Time  21:16: 9
  Original Simulation       12  20  2002 Yr    1 of   19 Time  21:16: 9
  Original Simulation       12  21  2002 Yr    1 of   19 Time  21:16: 9
  Original Simulation       12  22  2002 Yr    1 of   19 Time  21:16: 9
  Original Simulation       12  23  2002 Yr    1 of   19 Time  21:16: 9
  Original Simulation       12  24  2002 Yr    1 of   19 Time  21:16: 9
  Original Simulation       12  25  2002 Yr    1 of   19 Time  21:16:10
  Original Simulation       12  26  2002 Yr    1 of   19 Time  21:16:10
  Original Simulation       12  27  2002 Yr    1 of   19 Time  21:16:10
  Original Simulation       12  28  2002 Yr    1 of   19 Time  21:16:10
  Original Simulation       12  29  2002 Yr    1 of   19 Time  21:16:10
  Original Simulation       12  30  2002 Yr    1 of   19 Time  21:16:10
  Original Simulation       12  31  2002 Yr    1 of   19 Time  21:16:10
  Original Simulation        1   1  2003 Yr    2 of   19 Time  21:16:11
  Original Simulation        1   2  2003 Yr    2 of   19 Time  21:16:11
  Original Simulation        1   3  2003 Yr    2 of   19 Time  21:16:11
  Original Simulation        1   4  2003 Yr    2 of   19 Time  21:16:11
  Original Simulation        1   5  2003 Yr    2 of   19 Time  21:16:11
  Original Simulation        1   6  2003 Yr    2 of   19 Time  21:16:11
  Original Simulation        1   7  2003 Yr    2 of   19 Time  21:16:11
  Original Simulation        1   8  2003 Yr    2 of   19 Time  21:16:11
  Original Simulation        1   9  2003 Yr    2 of   19 Time  21:16:12
  Original Simulation        1  10  2003 Yr    2 of   19 Time  21:16:12
  Original Simulation        1  11  2003 Yr    2 of   19 Time  21:16:12
  Original Simulation        1  12  2003 Yr    2 of   19 Time  21:16:12
  Original Simulation        1  13  2003 Yr    2 of   19 Time  21:16:12
  Original Simulation        1  14  2003 Yr    2 of   19 Time  21:16:12
  Original Simulation        1  15  2003 Yr    2 of   19 Time  21:16:12
  Original Simulation        1  16  2003 Yr    2 of   19 Time  21:16:13
  Original Simulation        1  17  2003 Yr    2 of   19 Time  21:16:13
  Original Simulation        1  18  2003 Yr    2 of   19 Time  21:16:13
  Original Simulation        1  19  2003 Yr    2 of   19 Time  21:16:13
  Original Simulation        1  20  2003 Yr    2 of   19 Time  21:16:13
  Original Simulation        1  21  2003 Yr    2 of   19 Time  21:16:13
  Original Simulation        1  22  2003 Yr    2 of   19 Time  21:16:13
  Original Simulation        1  23  2003 Yr    2 of   19 Time  21:16:13
  Original Simulation        1  24  2003 Yr    2 of   19 Time  21:16:14
  Original Simulation        1  25  2003 Yr    2 of   19 Time  21:16:14
  Original Simulation        1  26  2003 Yr    2 of   19 Time  21:16:14
  Original Simulation        1  27  2003 Yr    2 of   19 Time  21:16:14
  Original Simulation        1  28  2003 Yr    2 of   19 Time  21:16:14
  Original Simulation        1  29  2003 Yr    2 of   19 Time  21:16:14
  Original Simulation        1  30  2003 Yr    2 of   19 Time  21:16:14
  Original Simulation        1  31  2003 Yr    2 of   19 Time  21:16:15
  Original Simulation        2   1  2003 Yr    2 of   19 Time  21:16:15
  Original Simulation        2   2  2003 Yr    2 of   19 Time  21:16:15
  Original Simulation        2   3  2003 Yr    2 of   19 Time  21:16:15
  Original Simulation        2   4  2003 Yr    2 of   19 Time  21:16:15
  Original Simulation        2   5  2003 Yr    2 of   19 Time  21:16:15
  Original Simulation        2   6  2003 Yr    2 of   19 Time  21:16:15
  Original Simulation        2   7  2003 Yr    2 of   19 Time  21:16:16
  Original Simulation        2   8  2003 Yr    2 of   19 Time  21:16:16
  Original Simulation        2   9  2003 Yr    2 of   19 Time  21:16:16
  Original Simulation        2  10  2003 Yr    2 of   19 Time  21:16:16
  Original Simulation        2  11  2003 Yr    2 of   19 Time  21:16:16
  Original Simulation        2  12  2003 Yr    2 of   19 Time  21:16:16
  Original Simulation        2  13  2003 Yr    2 of   19 Time  21:16:16
  Original Simulation        2  14  2003 Yr    2 of   19 Time  21:16:16
  Original Simulation        2  15  2003 Yr    2 of   19 Time  21:16:17
  Original Simulation        2  16  2003 Yr    2 of   19 Time  21:16:17
  Original Simulation        2  17  2003 Yr    2 of   19 Time  21:16:17
  Original Simulation        2  18  2003 Yr    2 of   19 Time  21:16:17
  Original Simulation        2  19  2003 Yr    2 of   19 Time  21:16:17
  Original Simulation        2  20  2003 Yr    2 of   19 Time  21:16:17
  Original Simulation        2  21  2003 Yr    2 of   19 Time  21:16:17
  Original Simulation        2  22  2003 Yr    2 of   19 Time  21:16:18
  Original Simulation        2  23  2003 Yr    2 of   19 Time  21:16:18
  Original Simulation        2  24  2003 Yr    2 of   19 Time  21:16:18
  Original Simulation        2  25  2003 Yr    2 of   19 Time  21:16:18
  Original Simulation        2  26  2003 Yr    2 of   19 Time  21:16:18
  Original Simulation        2  27  2003 Yr    2 of   19 Time  21:16:18
  Original Simulation        2  28  2003 Yr    2 of   19 Time  21:16:18
  Original Simulation        3   1  2003 Yr    2 of   19 Time  21:16:18
  Original Simulation        3   2  2003 Yr    2 of   19 Time  21:16:19
  Original Simulation        3   3  2003 Yr    2 of   19 Time  21:16:19
  Original Simulation        3   4  2003 Yr    2 of   19 Time  21:16:19
  Original Simulation        3   5  2003 Yr    2 of   19 Time  21:16:19
  Original Simulation        3   6  2003 Yr    2 of   19 Time  21:16:19
  Original Simulation        3   7  2003 Yr    2 of   19 Time  21:16:19
  Original Simulation        3   8  2003 Yr    2 of   19 Time  21:16:19
  Original Simulation        3   9  2003 Yr    2 of   19 Time  21:16:20
  Original Simulation        3  10  2003 Yr    2 of   19 Time  21:16:20
  Original Simulation        3  11  2003 Yr    2 of   19 Time  21:16:20
  Original Simulation        3  12  2003 Yr    2 of   19 Time  21:16:20
  Original Simulation        3  13  2003 Yr    2 of   19 Time  21:16:20
  Original Simulation        3  14  2003 Yr    2 of   19 Time  21:16:20
  Original Simulation        3  15  2003 Yr    2 of   19 Time  21:16:20
  Original Simulation        3  16  2003 Yr    2 of   19 Time  21:16:21
  Original Simulation        3  17  2003 Yr    2 of   19 Time  21:16:21
  Original Simulation        3  18  2003 Yr    2 of   19 Time  21:16:21
  Original Simulation        3  19  2003 Yr    2 of   19 Time  21:16:21
  Original Simulation        3  20  2003 Yr    2 of   19 Time  21:16:21
  Original Simulation        3  21  2003 Yr    2 of   19 Time  21:16:21
  Original Simulation        3  22  2003 Yr    2 of   19 Time  21:16:21
  Original Simulation        3  23  2003 Yr    2 of   19 Time  21:16:21
  Original Simulation        3  24  2003 Yr    2 of   19 Time  21:16:22
  Original Simulation        3  25  2003 Yr    2 of   19 Time  21:16:22
  Original Simulation        3  26  2003 Yr    2 of   19 Time  21:16:22
  Original Simulation        3  27  2003 Yr    2 of   19 Time  21:16:22
  Original Simulation        3  28  2003 Yr    2 of   19 Time  21:16:22
  Original Simulation        3  29  2003 Yr    2 of   19 Time  21:16:22
  Original Simulation        3  30  2003 Yr    2 of   19 Time  21:16:22
  Original Simulation        3  31  2003 Yr    2 of   19 Time  21:16:23
  Original Simulation        4   1  2003 Yr    2 of   19 Time  21:16:23
  Original Simulation        4   2  2003 Yr    2 of   19 Time  21:16:23
  Original Simulation        4   3  2003 Yr    2 of   19 Time  21:16:23
  Original Simulation        4   4  2003 Yr    2 of   19 Time  21:16:23
  Original Simulation        4   5  2003 Yr    2 of   19 Time  21:16:23
  Original Simulation        4   6  2003 Yr    2 of   19 Time  21:16:23
  Original Simulation        4   7  2003 Yr    2 of   19 Time  21:16:24
  Original Simulation        4   8  2003 Yr    2 of   19 Time  21:16:24
  Original Simulation        4   9  2003 Yr    2 of   19 Time  21:16:24
  Original Simulation        4  10  2003 Yr    2 of   19 Time  21:16:24
  Original Simulation        4  11  2003 Yr    2 of   19 Time  21:16:24
  Original Simulation        4  12  2003 Yr    2 of   19 Time  21:16:24
  Original Simulation        4  13  2003 Yr    2 of   19 Time  21:16:24
  Original Simulation        4  14  2003 Yr    2 of   19 Time  21:16:25
  Original Simulation        4  15  2003 Yr    2 of   19 Time  21:16:25
  Original Simulation        4  16  2003 Yr    2 of   19 Time  21:16:25
  Original Simulation        4  17  2003 Yr    2 of   19 Time  21:16:25
  Original Simulation        4  18  2003 Yr    2 of   19 Time  21:16:25
  Original Simulation        4  19  2003 Yr    2 of   19 Time  21:16:25
  Original Simulation        4  20  2003 Yr    2 of   19 Time  21:16:25
  Original Simulation        4  21  2003 Yr    2 of   19 Time  21:16:25
  Original Simulation        4  22  2003 Yr    2 of   19 Time  21:16:26
  Original Simulation        4  23  2003 Yr    2 of   19 Time  21:16:26
  Original Simulation        4  24  2003 Yr    2 of   19 Time  21:16:26
  Original Simulation        4  25  2003 Yr    2 of   19 Time  21:16:26
  Original Simulation        4  26  2003 Yr    2 of   19 Time  21:16:26
  Original Simulation        4  27  2003 Yr    2 of   19 Time  21:16:26
  Original Simulation        4  28  2003 Yr    2 of   19 Time  21:16:26
  Original Simulation        4  29  2003 Yr    2 of   19 Time  21:16:27
  Original Simulation        4  30  2003 Yr    2 of   19 Time  21:16:27
  Original Simulation        5   1  2003 Yr    2 of   19 Time  21:16:27
  Original Simulation        5   2  2003 Yr    2 of   19 Time  21:16:27
  Original Simulation        5   3  2003 Yr    2 of   19 Time  21:16:27
  Original Simulation        5   4  2003 Yr    2 of   19 Time  21:16:27
  Original Simulation        5   5  2003 Yr    2 of   19 Time  21:16:27
  Original Simulation        5   6  2003 Yr    2 of   19 Time  21:16:28
  Original Simulation        5   7  2003 Yr    2 of   19 Time  21:16:28
  Original Simulation        5   8  2003 Yr    2 of   19 Time  21:16:28
  Original Simulation        5   9  2003 Yr    2 of   19 Time  21:16:28
  Original Simulation        5  10  2003 Yr    2 of   19 Time  21:16:28
  Original Simulation        5  11  2003 Yr    2 of   19 Time  21:16:28
  Original Simulation        5  12  2003 Yr    2 of   19 Time  21:16:28
  Original Simulation        5  13  2003 Yr    2 of   19 Time  21:16:29
  Original Simulation        5  14  2003 Yr    2 of   19 Time  21:16:29
  Original Simulation        5  15  2003 Yr    2 of   19 Time  21:16:29
  Original Simulation        5  16  2003 Yr    2 of   19 Time  21:16:29
  Original Simulation        5  17  2003 Yr    2 of   19 Time  21:16:29
  Original Simulation        5  18  2003 Yr    2 of   19 Time  21:16:29
  Original Simulation        5  19  2003 Yr    2 of   19 Time  21:16:29
  Original Simulation        5  20  2003 Yr    2 of   19 Time  21:16:29
  Original Simulation        5  21  2003 Yr    2 of   19 Time  21:16:30
  Original Simulation        5  22  2003 Yr    2 of   19 Time  21:16:30
  Original Simulation        5  23  2003 Yr    2 of   19 Time  21:16:30
  Original Simulation        5  24  2003 Yr    2 of   19 Time  21:16:30
  Original Simulation        5  25  2003 Yr    2 of   19 Time  21:16:30
  Original Simulation        5  26  2003 Yr    2 of   19 Time  21:16:30
  Original Simulation        5  27  2003 Yr    2 of   19 Time  21:16:30
  Original Simulation        5  28  2003 Yr    2 of   19 Time  21:16:31
  Original Simulation        5  29  2003 Yr    2 of   19 Time  21:16:31
  Original Simulation        5  30  2003 Yr    2 of   19 Time  21:16:31
  Original Simulation        5  31  2003 Yr    2 of   19 Time  21:16:31
  Original Simulation        6   1  2003 Yr    2 of   19 Time  21:16:31
  Original Simulation        6   2  2003 Yr    2 of   19 Time  21:16:31
  Original Simulation        6   3  2003 Yr    2 of   19 Time  21:16:31
  Original Simulation        6   4  2003 Yr    2 of   19 Time  21:16:32
  Original Simulation        6   5  2003 Yr    2 of   19 Time  21:16:32
  Original Simulation        6   6  2003 Yr    2 of   19 Time  21:16:32
  Original Simulation        6   7  2003 Yr    2 of   19 Time  21:16:32
  Original Simulation        6   8  2003 Yr    2 of   19 Time  21:16:32
  Original Simulation        6   9  2003 Yr    2 of   19 Time  21:16:32
  Original Simulation        6  10  2003 Yr    2 of   19 Time  21:16:32
  Original Simulation        6  11  2003 Yr    2 of   19 Time  21:16:32
  Original Simulation        6  12  2003 Yr    2 of   19 Time  21:16:33
  Original Simulation        6  13  2003 Yr    2 of   19 Time  21:16:33
  Original Simulation        6  14  2003 Yr    2 of   19 Time  21:16:33
  Original Simulation        6  15  2003 Yr    2 of   19 Time  21:16:33
  Original Simulation        6  16  2003 Yr    2 of   19 Time  21:16:33
  Original Simulation        6  17  2003 Yr    2 of   19 Time  21:16:33
  Original Simulation        6  18  2003 Yr    2 of   19 Time  21:16:33
  Original Simulation        6  19  2003 Yr    2 of   19 Time  21:16:34
  Original Simulation        6  20  2003 Yr    2 of   19 Time  21:16:34
  Original Simulation        6  21  2003 Yr    2 of   19 Time  21:16:34
  Original Simulation        6  22  2003 Yr    2 of   19 Time  21:16:34
  Original Simulation        6  23  2003 Yr    2 of   19 Time  21:16:34
  Original Simulation        6  24  2003 Yr    2 of   19 Time  21:16:34
  Original Simulation        6  25  2003 Yr    2 of   19 Time  21:16:34
  Original Simulation        6  26  2003 Yr    2 of   19 Time  21:16:35
  Original Simulation        6  27  2003 Yr    2 of   19 Time  21:16:35
  Original Simulation        6  28  2003 Yr    2 of   19 Time  21:16:35
  Original Simulation        6  29  2003 Yr    2 of   19 Time  21:16:35
  Original Simulation        6  30  2003 Yr    2 of   19 Time  21:16:35
  Original Simulation        7   1  2003 Yr    2 of   19 Time  21:16:35
  Original Simulation        7   2  2003 Yr    2 of   19 Time  21:16:35
  Original Simulation        7   3  2003 Yr    2 of   19 Time  21:16:36
  Original Simulation        7   4  2003 Yr    2 of   19 Time  21:16:36
  Original Simulation        7   5  2003 Yr    2 of   19 Time  21:16:36
  Original Simulation        7   6  2003 Yr    2 of   19 Time  21:16:36
  Original Simulation        7   7  2003 Yr    2 of   19 Time  21:16:36
  Original Simulation        7   8  2003 Yr    2 of   19 Time  21:16:36
  Original Simulation        7   9  2003 Yr    2 of   19 Time  21:16:36
  Original Simulation        7  10  2003 Yr    2 of   19 Time  21:16:36
  Original Simulation        7  11  2003 Yr    2 of   19 Time  21:16:37
  Original Simulation        7  12  2003 Yr    2 of   19 Time  21:16:37
  Original Simulation        7  13  2003 Yr    2 of   19 Time  21:16:37
  Original Simulation        7  14  2003 Yr    2 of   19 Time  21:16:37
  Original Simulation        7  15  2003 Yr    2 of   19 Time  21:16:37
  Original Simulation        7  16  2003 Yr    2 of   19 Time  21:16:37
  Original Simulation        7  17  2003 Yr    2 of   19 Time  21:16:37
  Original Simulation        7  18  2003 Yr    2 of   19 Time  21:16:38
  Original Simulation        7  19  2003 Yr    2 of   19 Time  21:16:38
  Original Simulation        7  20  2003 Yr    2 of   19 Time  21:16:38
  Original Simulation        7  21  2003 Yr    2 of   19 Time  21:16:38
  Original Simulation        7  22  2003 Yr    2 of   19 Time  21:16:38
  Original Simulation        7  23  2003 Yr    2 of   19 Time  21:16:38
  Original Simulation        7  24  2003 Yr    2 of   19 Time  21:16:38
  Original Simulation        7  25  2003 Yr    2 of   19 Time  21:16:39
  Original Simulation        7  26  2003 Yr    2 of   19 Time  21:16:39
  Original Simulation        7  27  2003 Yr    2 of   19 Time  21:16:39
  Original Simulation        7  28  2003 Yr    2 of   19 Time  21:16:39
  Original Simulation        7  29  2003 Yr    2 of   19 Time  21:16:39
  Original Simulation        7  30  2003 Yr    2 of   19 Time  21:16:39
  Original Simulation        7  31  2003 Yr    2 of   19 Time  21:16:39
  Original Simulation        8   1  2003 Yr    2 of   19 Time  21:16:40
  Original Simulation        8   2  2003 Yr    2 of   19 Time  21:16:40
  Original Simulation        8   3  2003 Yr    2 of   19 Time  21:16:40
  Original Simulation        8   4  2003 Yr    2 of   19 Time  21:16:40
  Original Simulation        8   5  2003 Yr    2 of   19 Time  21:16:40
  Original Simulation        8   6  2003 Yr    2 of   19 Time  21:16:40
  Original Simulation        8   7  2003 Yr    2 of   19 Time  21:16:40
  Original Simulation        8   8  2003 Yr    2 of   19 Time  21:16:41
  Original Simulation        8   9  2003 Yr    2 of   19 Time  21:16:41
  Original Simulation        8  10  2003 Yr    2 of   19 Time  21:16:41
  Original Simulation        8  11  2003 Yr    2 of   19 Time  21:16:41
  Original Simulation        8  12  2003 Yr    2 of   19 Time  21:16:41
  Original Simulation        8  13  2003 Yr    2 of   19 Time  21:16:41
  Original Simulation        8  14  2003 Yr    2 of   19 Time  21:16:41
  Original Simulation        8  15  2003 Yr    2 of   19 Time  21:16:41
  Original Simulation        8  16  2003 Yr    2 of   19 Time  21:16:42
  Original Simulation        8  17  2003 Yr    2 of   19 Time  21:16:42
  Original Simulation        8  18  2003 Yr    2 of   19 Time  21:16:42
  Original Simulation        8  19  2003 Yr    2 of   19 Time  21:16:42
  Original Simulation        8  20  2003 Yr    2 of   19 Time  21:16:42
  Original Simulation        8  21  2003 Yr    2 of   19 Time  21:16:42
  Original Simulation        8  22  2003 Yr    2 of   19 Time  21:16:42
  Original Simulation        8  23  2003 Yr    2 of   19 Time  21:16:43
  Original Simulation        8  24  2003 Yr    2 of   19 Time  21:16:43
  Original Simulation        8  25  2003 Yr    2 of   19 Time  21:16:43
  Original Simulation        8  26  2003 Yr    2 of   19 Time  21:16:43
  Original Simulation        8  27  2003 Yr    2 of   19 Time  21:16:43
  Original Simulation        8  28  2003 Yr    2 of   19 Time  21:16:43
  Original Simulation        8  29  2003 Yr    2 of   19 Time  21:16:43
  Original Simulation        8  30  2003 Yr    2 of   19 Time  21:16:44
  Original Simulation        8  31  2003 Yr    2 of   19 Time  21:16:44
  Original Simulation        9   1  2003 Yr    2 of   19 Time  21:16:44
  Original Simulation        9   2  2003 Yr    2 of   19 Time  21:16:44
  Original Simulation        9   3  2003 Yr    2 of   19 Time  21:16:44
  Original Simulation        9   4  2003 Yr    2 of   19 Time  21:16:44
  Original Simulation        9   5  2003 Yr    2 of   19 Time  21:16:44
  Original Simulation        9   6  2003 Yr    2 of   19 Time  21:16:45
  Original Simulation        9   7  2003 Yr    2 of   19 Time  21:16:45
  Original Simulation        9   8  2003 Yr    2 of   19 Time  21:16:45
  Original Simulation        9   9  2003 Yr    2 of   19 Time  21:16:45
  Original Simulation        9  10  2003 Yr    2 of   19 Time  21:16:45
  Original Simulation        9  11  2003 Yr    2 of   19 Time  21:16:45
  Original Simulation        9  12  2003 Yr    2 of   19 Time  21:16:45
  Original Simulation        9  13  2003 Yr    2 of   19 Time  21:16:45
  Original Simulation        9  14  2003 Yr    2 of   19 Time  21:16:46
  Original Simulation        9  15  2003 Yr    2 of   19 Time  21:16:46
  Original Simulation        9  16  2003 Yr    2 of   19 Time  21:16:46
  Original Simulation        9  17  2003 Yr    2 of   19 Time  21:16:46
  Original Simulation        9  18  2003 Yr    2 of   19 Time  21:16:46
  Original Simulation        9  19  2003 Yr    2 of   19 Time  21:16:46
  Original Simulation        9  20  2003 Yr    2 of   19 Time  21:16:46
  Original Simulation        9  21  2003 Yr    2 of   19 Time  21:16:47
  Original Simulation        9  22  2003 Yr    2 of   19 Time  21:16:47
  Original Simulation        9  23  2003 Yr    2 of   19 Time  21:16:47
  Original Simulation        9  24  2003 Yr    2 of   19 Time  21:16:47
  Original Simulation        9  25  2003 Yr    2 of   19 Time  21:16:47
  Original Simulation        9  26  2003 Yr    2 of   19 Time  21:16:47
  Original Simulation        9  27  2003 Yr    2 of   19 Time  21:16:47
  Original Simulation        9  28  2003 Yr    2 of   19 Time  21:16:48
  Original Simulation        9  29  2003 Yr    2 of   19 Time  21:16:48
  Original Simulation        9  30  2003 Yr    2 of   19 Time  21:16:48
  Original Simulation       10   1  2003 Yr    2 of   19 Time  21:16:48
  Original Simulation       10   2  2003 Yr    2 of   19 Time  21:16:48
  Original Simulation       10   3  2003 Yr    2 of   19 Time  21:16:48
  Original Simulation       10   4  2003 Yr    2 of   19 Time  21:16:48
  Original Simulation       10   5  2003 Yr    2 of   19 Time  21:16:49
  Original Simulation       10   6  2003 Yr    2 of   19 Time  21:16:49
  Original Simulation       10   7  2003 Yr    2 of   19 Time  21:16:49
  Original Simulation       10   8  2003 Yr    2 of   19 Time  21:16:49
  Original Simulation       10   9  2003 Yr    2 of   19 Time  21:16:49
  Original Simulation       10  10  2003 Yr    2 of   19 Time  21:16:49
  Original Simulation       10  11  2003 Yr    2 of   19 Time  21:16:49
  Original Simulation       10  12  2003 Yr    2 of   19 Time  21:16:49
  Original Simulation       10  13  2003 Yr    2 of   19 Time  21:16:50
  Original Simulation       10  14  2003 Yr    2 of   19 Time  21:16:50
  Original Simulation       10  15  2003 Yr    2 of   19 Time  21:16:50
  Original Simulation       10  16  2003 Yr    2 of   19 Time  21:16:50
  Original Simulation       10  17  2003 Yr    2 of   19 Time  21:16:50
  Original Simulation       10  18  2003 Yr    2 of   19 Time  21:16:50
  Original Simulation       10  19  2003 Yr    2 of   19 Time  21:16:50
  Original Simulation       10  20  2003 Yr    2 of   19 Time  21:16:51
  Original Simulation       10  21  2003 Yr    2 of   19 Time  21:16:51
  Original Simulation       10  22  2003 Yr    2 of   19 Time  21:16:51
  Original Simulation       10  23  2003 Yr    2 of   19 Time  21:16:51
  Original Simulation       10  24  2003 Yr    2 of   19 Time  21:16:51
  Original Simulation       10  25  2003 Yr    2 of   19 Time  21:16:51
  Original Simulation       10  26  2003 Yr    2 of   19 Time  21:16:51
  Original Simulation       10  27  2003 Yr    2 of   19 Time  21:16:52
  Original Simulation       10  28  2003 Yr    2 of   19 Time  21:16:52
  Original Simulation       10  29  2003 Yr    2 of   19 Time  21:16:52
  Original Simulation       10  30  2003 Yr    2 of   19 Time  21:16:52
  Original Simulation       10  31  2003 Yr    2 of   19 Time  21:16:52
  Original Simulation       11   1  2003 Yr    2 of   19 Time  21:16:52
  Original Simulation       11   2  2003 Yr    2 of   19 Time  21:16:52
  Original Simulation       11   3  2003 Yr    2 of   19 Time  21:16:53
  Original Simulation       11   4  2003 Yr    2 of   19 Time  21:16:53
  Original Simulation       11   5  2003 Yr    2 of   19 Time  21:16:53
  Original Simulation       11   6  2003 Yr    2 of   19 Time  21:16:53
  Original Simulation       11   7  2003 Yr    2 of   19 Time  21:16:53
  Original Simulation       11   8  2003 Yr    2 of   19 Time  21:16:53
  Original Simulation       11   9  2003 Yr    2 of   19 Time  21:16:53
  Original Simulation       11  10  2003 Yr    2 of   19 Time  21:16:53
  Original Simulation       11  11  2003 Yr    2 of   19 Time  21:16:54
  Original Simulation       11  12  2003 Yr    2 of   19 Time  21:16:54
  Original Simulation       11  13  2003 Yr    2 of   19 Time  21:16:54
  Original Simulation       11  14  2003 Yr    2 of   19 Time  21:16:54
  Original Simulation       11  15  2003 Yr    2 of   19 Time  21:16:54
  Original Simulation       11  16  2003 Yr    2 of   19 Time  21:16:54
  Original Simulation       11  17  2003 Yr    2 of   19 Time  21:16:54
  Original Simulation       11  18  2003 Yr    2 of   19 Time  21:16:55
  Original Simulation       11  19  2003 Yr    2 of   19 Time  21:16:55
  Original Simulation       11  20  2003 Yr    2 of   19 Time  21:16:55
  Original Simulation       11  21  2003 Yr    2 of   19 Time  21:16:55
  Original Simulation       11  22  2003 Yr    2 of   19 Time  21:16:55
  Original Simulation       11  23  2003 Yr    2 of   19 Time  21:16:55
  Original Simulation       11  24  2003 Yr    2 of   19 Time  21:16:55
  Original Simulation       11  25  2003 Yr    2 of   19 Time  21:16:56
  Original Simulation       11  26  2003 Yr    2 of   19 Time  21:16:56
  Original Simulation       11  27  2003 Yr    2 of   19 Time  21:16:56
  Original Simulation       11  28  2003 Yr    2 of   19 Time  21:16:56
  Original Simulation       11  29  2003 Yr    2 of   19 Time  21:16:56
  Original Simulation       11  30  2003 Yr    2 of   19 Time  21:16:56
  Original Simulation       12   1  2003 Yr    2 of   19 Time  21:16:56
  Original Simulation       12   2  2003 Yr    2 of   19 Time  21:16:56
  Original Simulation       12   3  2003 Yr    2 of   19 Time  21:16:57
  Original Simulation       12   4  2003 Yr    2 of   19 Time  21:16:57
  Original Simulation       12   5  2003 Yr    2 of   19 Time  21:16:57
  Original Simulation       12   6  2003 Yr    2 of   19 Time  21:16:57
  Original Simulation       12   7  2003 Yr    2 of   19 Time  21:16:57
  Original Simulation       12   8  2003 Yr    2 of   19 Time  21:16:57
  Original Simulation       12   9  2003 Yr    2 of   19 Time  21:16:57
  Original Simulation       12  10  2003 Yr    2 of   19 Time  21:16:58
  Original Simulation       12  11  2003 Yr    2 of   19 Time  21:16:58
  Original Simulation       12  12  2003 Yr    2 of   19 Time  21:16:58
  Original Simulation       12  13  2003 Yr    2 of   19 Time  21:16:58
  Original Simulation       12  14  2003 Yr    2 of   19 Time  21:16:58
  Original Simulation       12  15  2003 Yr    2 of   19 Time  21:16:58
  Original Simulation       12  16  2003 Yr    2 of   19 Time  21:16:58
  Original Simulation       12  17  2003 Yr    2 of   19 Time  21:16:58
  Original Simulation       12  18  2003 Yr    2 of   19 Time  21:16:59
  Original Simulation       12  19  2003 Yr    2 of   19 Time  21:16:59
  Original Simulation       12  20  2003 Yr    2 of   19 Time  21:16:59
  Original Simulation       12  21  2003 Yr    2 of   19 Time  21:16:59
  Original Simulation       12  22  2003 Yr    2 of   19 Time  21:16:59
  Original Simulation       12  23  2003 Yr    2 of   19 Time  21:16:59
  Original Simulation       12  24  2003 Yr    2 of   19 Time  21:16:59
  Original Simulation       12  25  2003 Yr    2 of   19 Time  21:17: 0
  Original Simulation       12  26  2003 Yr    2 of   19 Time  21:17: 0
  Original Simulation       12  27  2003 Yr    2 of   19 Time  21:17: 0
  Original Simulation       12  28  2003 Yr    2 of   19 Time  21:17: 0
  Original Simulation       12  29  2003 Yr    2 of   19 Time  21:17: 0
  Original Simulation       12  30  2003 Yr    2 of   19 Time  21:17: 0
  Original Simulation       12  31  2003 Yr    2 of   19 Time  21:17: 0
  Original Simulation        1   1  2004 Yr    3 of   19 Time  21:17: 0
  Original Simulation        1   2  2004 Yr    3 of   19 Time  21:17: 1
  Original Simulation        1   3  2004 Yr    3 of   19 Time  21:17: 1
  Original Simulation        1   4  2004 Yr    3 of   19 Time  21:17: 1
  Original Simulation        1   5  2004 Yr    3 of   19 Time  21:17: 1
  Original Simulation        1   6  2004 Yr    3 of   19 Time  21:17: 1
  Original Simulation        1   7  2004 Yr    3 of   19 Time  21:17: 1
  Original Simulation        1   8  2004 Yr    3 of   19 Time  21:17: 1
  Original Simulation        1   9  2004 Yr    3 of   19 Time  21:17: 2
  Original Simulation        1  10  2004 Yr    3 of   19 Time  21:17: 2
  Original Simulation        1  11  2004 Yr    3 of   19 Time  21:17: 2
  Original Simulation        1  12  2004 Yr    3 of   19 Time  21:17: 2
  Original Simulation        1  13  2004 Yr    3 of   19 Time  21:17: 2
  Original Simulation        1  14  2004 Yr    3 of   19 Time  21:17: 2
  Original Simulation        1  15  2004 Yr    3 of   19 Time  21:17: 2
  Original Simulation        1  16  2004 Yr    3 of   19 Time  21:17: 2
  Original Simulation        1  17  2004 Yr    3 of   19 Time  21:17: 3
  Original Simulation        1  18  2004 Yr    3 of   19 Time  21:17: 3
  Original Simulation        1  19  2004 Yr    3 of   19 Time  21:17: 3
  Original Simulation        1  20  2004 Yr    3 of   19 Time  21:17: 3
  Original Simulation        1  21  2004 Yr    3 of   19 Time  21:17: 3
  Original Simulation        1  22  2004 Yr    3 of   19 Time  21:17: 3
  Original Simulation        1  23  2004 Yr    3 of   19 Time  21:17: 3
  Original Simulation        1  24  2004 Yr    3 of   19 Time  21:17: 4
  Original Simulation        1  25  2004 Yr    3 of   19 Time  21:17: 4
  Original Simulation        1  26  2004 Yr    3 of   19 Time  21:17: 4
  Original Simulation        1  27  2004 Yr    3 of   19 Time  21:17: 4
  Original Simulation        1  28  2004 Yr    3 of   19 Time  21:17: 4
  Original Simulation        1  29  2004 Yr    3 of   19 Time  21:17: 4
  Original Simulation        1  30  2004 Yr    3 of   19 Time  21:17: 4
  Original Simulation        1  31  2004 Yr    3 of   19 Time  21:17: 4
  Original Simulation        2   1  2004 Yr    3 of   19 Time  21:17: 5
  Original Simulation        2   2  2004 Yr    3 of   19 Time  21:17: 5
  Original Simulation        2   3  2004 Yr    3 of   19 Time  21:17: 5
  Original Simulation        2   4  2004 Yr    3 of   19 Time  21:17: 5
  Original Simulation        2   5  2004 Yr    3 of   19 Time  21:17: 5
  Original Simulation        2   6  2004 Yr    3 of   19 Time  21:17: 5
  Original Simulation        2   7  2004 Yr    3 of   19 Time  21:17: 5
  Original Simulation        2   8  2004 Yr    3 of   19 Time  21:17: 6
  Original Simulation        2   9  2004 Yr    3 of   19 Time  21:17: 6
  Original Simulation        2  10  2004 Yr    3 of   19 Time  21:17: 6
  Original Simulation        2  11  2004 Yr    3 of   19 Time  21:17: 6
  Original Simulation        2  12  2004 Yr    3 of   19 Time  21:17: 6
  Original Simulation        2  13  2004 Yr    3 of   19 Time  21:17: 6
  Original Simulation        2  14  2004 Yr    3 of   19 Time  21:17: 6
  Original Simulation        2  15  2004 Yr    3 of   19 Time  21:17: 7
  Original Simulation        2  16  2004 Yr    3 of   19 Time  21:17: 7
  Original Simulation        2  17  2004 Yr    3 of   19 Time  21:17: 7
  Original Simulation        2  18  2004 Yr    3 of   19 Time  21:17: 7
  Original Simulation        2  19  2004 Yr    3 of   19 Time  21:17: 7
  Original Simulation        2  20  2004 Yr    3 of   19 Time  21:17: 7
  Original Simulation        2  21  2004 Yr    3 of   19 Time  21:17: 7
  Original Simulation        2  22  2004 Yr    3 of   19 Time  21:17: 7
  Original Simulation        2  23  2004 Yr    3 of   19 Time  21:17: 8
  Original Simulation        2  24  2004 Yr    3 of   19 Time  21:17: 8
  Original Simulation        2  25  2004 Yr    3 of   19 Time  21:17: 8
  Original Simulation        2  26  2004 Yr    3 of   19 Time  21:17: 8
  Original Simulation        2  27  2004 Yr    3 of   19 Time  21:17: 8
  Original Simulation        2  28  2004 Yr    3 of   19 Time  21:17: 8
  Original Simulation        2  29  2004 Yr    3 of   19 Time  21:17: 8
  Original Simulation        3   1  2004 Yr    3 of   19 Time  21:17: 9
  Original Simulation        3   2  2004 Yr    3 of   19 Time  21:17: 9
  Original Simulation        3   3  2004 Yr    3 of   19 Time  21:17: 9
  Original Simulation        3   4  2004 Yr    3 of   19 Time  21:17: 9
  Original Simulation        3   5  2004 Yr    3 of   19 Time  21:17: 9
  Original Simulation        3   6  2004 Yr    3 of   19 Time  21:17: 9
  Original Simulation        3   7  2004 Yr    3 of   19 Time  21:17: 9
  Original Simulation        3   8  2004 Yr    3 of   19 Time  21:17:10
  Original Simulation        3   9  2004 Yr    3 of   19 Time  21:17:10
  Original Simulation        3  10  2004 Yr    3 of   19 Time  21:17:10
  Original Simulation        3  11  2004 Yr    3 of   19 Time  21:17:10
  Original Simulation        3  12  2004 Yr    3 of   19 Time  21:17:10
  Original Simulation        3  13  2004 Yr    3 of   19 Time  21:17:10
  Original Simulation        3  14  2004 Yr    3 of   19 Time  21:17:10
  Original Simulation        3  15  2004 Yr    3 of   19 Time  21:17:11
  Original Simulation        3  16  2004 Yr    3 of   19 Time  21:17:11
  Original Simulation        3  17  2004 Yr    3 of   19 Time  21:17:11
  Original Simulation        3  18  2004 Yr    3 of   19 Time  21:17:11
  Original Simulation        3  19  2004 Yr    3 of   19 Time  21:17:11
  Original Simulation        3  20  2004 Yr    3 of   19 Time  21:17:11
  Original Simulation        3  21  2004 Yr    3 of   19 Time  21:17:11
  Original Simulation        3  22  2004 Yr    3 of   19 Time  21:17:11
  Original Simulation        3  23  2004 Yr    3 of   19 Time  21:17:12
  Original Simulation        3  24  2004 Yr    3 of   19 Time  21:17:12
  Original Simulation        3  25  2004 Yr    3 of   19 Time  21:17:12
  Original Simulation        3  26  2004 Yr    3 of   19 Time  21:17:12
  Original Simulation        3  27  2004 Yr    3 of   19 Time  21:17:12
  Original Simulation        3  28  2004 Yr    3 of   19 Time  21:17:12
  Original Simulation        3  29  2004 Yr    3 of   19 Time  21:17:12
  Original Simulation        3  30  2004 Yr    3 of   19 Time  21:17:13
  Original Simulation        3  31  2004 Yr    3 of   19 Time  21:17:13
  Original Simulation        4   1  2004 Yr    3 of   19 Time  21:17:13
  Original Simulation        4   2  2004 Yr    3 of   19 Time  21:17:13
  Original Simulation        4   3  2004 Yr    3 of   19 Time  21:17:13
  Original Simulation        4   4  2004 Yr    3 of   19 Time  21:17:13
  Original Simulation        4   5  2004 Yr    3 of   19 Time  21:17:13
  Original Simulation        4   6  2004 Yr    3 of   19 Time  21:17:14
  Original Simulation        4   7  2004 Yr    3 of   19 Time  21:17:14
  Original Simulation        4   8  2004 Yr    3 of   19 Time  21:17:14
  Original Simulation        4   9  2004 Yr    3 of   19 Time  21:17:14
  Original Simulation        4  10  2004 Yr    3 of   19 Time  21:17:14
  Original Simulation        4  11  2004 Yr    3 of   19 Time  21:17:14
  Original Simulation        4  12  2004 Yr    3 of   19 Time  21:17:14
  Original Simulation        4  13  2004 Yr    3 of   19 Time  21:17:15
  Original Simulation        4  14  2004 Yr    3 of   19 Time  21:17:15
  Original Simulation        4  15  2004 Yr    3 of   19 Time  21:17:15
  Original Simulation        4  16  2004 Yr    3 of   19 Time  21:17:15
  Original Simulation        4  17  2004 Yr    3 of   19 Time  21:17:15
  Original Simulation        4  18  2004 Yr    3 of   19 Time  21:17:15
  Original Simulation        4  19  2004 Yr    3 of   19 Time  21:17:15
  Original Simulation        4  20  2004 Yr    3 of   19 Time  21:17:15
  Original Simulation        4  21  2004 Yr    3 of   19 Time  21:17:16
  Original Simulation        4  22  2004 Yr    3 of   19 Time  21:17:16
  Original Simulation        4  23  2004 Yr    3 of   19 Time  21:17:16
  Original Simulation        4  24  2004 Yr    3 of   19 Time  21:17:16
  Original Simulation        4  25  2004 Yr    3 of   19 Time  21:17:16
  Original Simulation        4  26  2004 Yr    3 of   19 Time  21:17:16
  Original Simulation        4  27  2004 Yr    3 of   19 Time  21:17:16
  Original Simulation        4  28  2004 Yr    3 of   19 Time  21:17:17
  Original Simulation        4  29  2004 Yr    3 of   19 Time  21:17:17
  Original Simulation        4  30  2004 Yr    3 of   19 Time  21:17:17
  Original Simulation        5   1  2004 Yr    3 of   19 Time  21:17:17
  Original Simulation        5   2  2004 Yr    3 of   19 Time  21:17:17
  Original Simulation        5   3  2004 Yr    3 of   19 Time  21:17:17
  Original Simulation        5   4  2004 Yr    3 of   19 Time  21:17:17
  Original Simulation        5   5  2004 Yr    3 of   19 Time  21:17:18
  Original Simulation        5   6  2004 Yr    3 of   19 Time  21:17:18
  Original Simulation        5   7  2004 Yr    3 of   19 Time  21:17:18
  Original Simulation        5   8  2004 Yr    3 of   19 Time  21:17:18
  Original Simulation        5   9  2004 Yr    3 of   19 Time  21:17:18
  Original Simulation        5  10  2004 Yr    3 of   19 Time  21:17:18
  Original Simulation        5  11  2004 Yr    3 of   19 Time  21:17:18
  Original Simulation        5  12  2004 Yr    3 of   19 Time  21:17:19
  Original Simulation        5  13  2004 Yr    3 of   19 Time  21:17:19
  Original Simulation        5  14  2004 Yr    3 of   19 Time  21:17:19
  Original Simulation        5  15  2004 Yr    3 of   19 Time  21:17:19
  Original Simulation        5  16  2004 Yr    3 of   19 Time  21:17:19
  Original Simulation        5  17  2004 Yr    3 of   19 Time  21:17:19
  Original Simulation        5  18  2004 Yr    3 of   19 Time  21:17:19
  Original Simulation        5  19  2004 Yr    3 of   19 Time  21:17:20
  Original Simulation        5  20  2004 Yr    3 of   19 Time  21:17:20
  Original Simulation        5  21  2004 Yr    3 of   19 Time  21:17:20
  Original Simulation        5  22  2004 Yr    3 of   19 Time  21:17:20
  Original Simulation        5  23  2004 Yr    3 of   19 Time  21:17:20
  Original Simulation        5  24  2004 Yr    3 of   19 Time  21:17:20
  Original Simulation        5  25  2004 Yr    3 of   19 Time  21:17:20
  Original Simulation        5  26  2004 Yr    3 of   19 Time  21:17:20
  Original Simulation        5  27  2004 Yr    3 of   19 Time  21:17:21
  Original Simulation        5  28  2004 Yr    3 of   19 Time  21:17:21
  Original Simulation        5  29  2004 Yr    3 of   19 Time  21:17:21
  Original Simulation        5  30  2004 Yr    3 of   19 Time  21:17:21
  Original Simulation        5  31  2004 Yr    3 of   19 Time  21:17:21
  Original Simulation        6   1  2004 Yr    3 of   19 Time  21:17:21
  Original Simulation        6   2  2004 Yr    3 of   19 Time  21:17:21
  Original Simulation        6   3  2004 Yr    3 of   19 Time  21:17:22
  Original Simulation        6   4  2004 Yr    3 of   19 Time  21:17:22
  Original Simulation        6   5  2004 Yr    3 of   19 Time  21:17:22
  Original Simulation        6   6  2004 Yr    3 of   19 Time  21:17:22
  Original Simulation        6   7  2004 Yr    3 of   19 Time  21:17:22
  Original Simulation        6   8  2004 Yr    3 of   19 Time  21:17:22
  Original Simulation        6   9  2004 Yr    3 of   19 Time  21:17:22
  Original Simulation        6  10  2004 Yr    3 of   19 Time  21:17:23
  Original Simulation        6  11  2004 Yr    3 of   19 Time  21:17:23
  Original Simulation        6  12  2004 Yr    3 of   19 Time  21:17:23
  Original Simulation        6  13  2004 Yr    3 of   19 Time  21:17:23
  Original Simulation        6  14  2004 Yr    3 of   19 Time  21:17:23
  Original Simulation        6  15  2004 Yr    3 of   19 Time  21:17:23
  Original Simulation        6  16  2004 Yr    3 of   19 Time  21:17:23
  Original Simulation        6  17  2004 Yr    3 of   19 Time  21:17:24
  Original Simulation        6  18  2004 Yr    3 of   19 Time  21:17:24
  Original Simulation        6  19  2004 Yr    3 of   19 Time  21:17:24
  Original Simulation        6  20  2004 Yr    3 of   19 Time  21:17:24
  Original Simulation        6  21  2004 Yr    3 of   19 Time  21:17:24
  Original Simulation        6  22  2004 Yr    3 of   19 Time  21:17:24
  Original Simulation        6  23  2004 Yr    3 of   19 Time  21:17:24
  Original Simulation        6  24  2004 Yr    3 of   19 Time  21:17:25
  Original Simulation        6  25  2004 Yr    3 of   19 Time  21:17:25
  Original Simulation        6  26  2004 Yr    3 of   19 Time  21:17:25
  Original Simulation        6  27  2004 Yr    3 of   19 Time  21:17:25
  Original Simulation        6  28  2004 Yr    3 of   19 Time  21:17:25
  Original Simulation        6  29  2004 Yr    3 of   19 Time  21:17:25
  Original Simulation        6  30  2004 Yr    3 of   19 Time  21:17:25
  Original Simulation        7   1  2004 Yr    3 of   19 Time  21:17:25
  Original Simulation        7   2  2004 Yr    3 of   19 Time  21:17:26
  Original Simulation        7   3  2004 Yr    3 of   19 Time  21:17:26
  Original Simulation        7   4  2004 Yr    3 of   19 Time  21:17:26
  Original Simulation        7   5  2004 Yr    3 of   19 Time  21:17:26
  Original Simulation        7   6  2004 Yr    3 of   19 Time  21:17:26
  Original Simulation        7   7  2004 Yr    3 of   19 Time  21:17:26
  Original Simulation        7   8  2004 Yr    3 of   19 Time  21:17:26
  Original Simulation        7   9  2004 Yr    3 of   19 Time  21:17:27
  Original Simulation        7  10  2004 Yr    3 of   19 Time  21:17:27
  Original Simulation        7  11  2004 Yr    3 of   19 Time  21:17:27
  Original Simulation        7  12  2004 Yr    3 of   19 Time  21:17:27
  Original Simulation        7  13  2004 Yr    3 of   19 Time  21:17:27
  Original Simulation        7  14  2004 Yr    3 of   19 Time  21:17:27
  Original Simulation        7  15  2004 Yr    3 of   19 Time  21:17:27
  Original Simulation        7  16  2004 Yr    3 of   19 Time  21:17:28
  Original Simulation        7  17  2004 Yr    3 of   19 Time  21:17:28
  Original Simulation        7  18  2004 Yr    3 of   19 Time  21:17:28
  Original Simulation        7  19  2004 Yr    3 of   19 Time  21:17:28
  Original Simulation        7  20  2004 Yr    3 of   19 Time  21:17:28
  Original Simulation        7  21  2004 Yr    3 of   19 Time  21:17:28
  Original Simulation        7  22  2004 Yr    3 of   19 Time  21:17:28
  Original Simulation        7  23  2004 Yr    3 of   19 Time  21:17:29
  Original Simulation        7  24  2004 Yr    3 of   19 Time  21:17:29
  Original Simulation        7  25  2004 Yr    3 of   19 Time  21:17:29
  Original Simulation        7  26  2004 Yr    3 of   19 Time  21:17:29
  Original Simulation        7  27  2004 Yr    3 of   19 Time  21:17:29
  Original Simulation        7  28  2004 Yr    3 of   19 Time  21:17:29
  Original Simulation        7  29  2004 Yr    3 of   19 Time  21:17:29
  Original Simulation        7  30  2004 Yr    3 of   19 Time  21:17:30
  Original Simulation        7  31  2004 Yr    3 of   19 Time  21:17:30
  Original Simulation        8   1  2004 Yr    3 of   19 Time  21:17:30
  Original Simulation        8   2  2004 Yr    3 of   19 Time  21:17:30
  Original Simulation        8   3  2004 Yr    3 of   19 Time  21:17:30
  Original Simulation        8   4  2004 Yr    3 of   19 Time  21:17:30
  Original Simulation        8   5  2004 Yr    3 of   19 Time  21:17:30
  Original Simulation        8   6  2004 Yr    3 of   19 Time  21:17:30
  Original Simulation        8   7  2004 Yr    3 of   19 Time  21:17:31
  Original Simulation        8   8  2004 Yr    3 of   19 Time  21:17:31
  Original Simulation        8   9  2004 Yr    3 of   19 Time  21:17:31
  Original Simulation        8  10  2004 Yr    3 of   19 Time  21:17:31
  Original Simulation        8  11  2004 Yr    3 of   19 Time  21:17:31
  Original Simulation        8  12  2004 Yr    3 of   19 Time  21:17:31
  Original Simulation        8  13  2004 Yr    3 of   19 Time  21:17:31
  Original Simulation        8  14  2004 Yr    3 of   19 Time  21:17:32
  Original Simulation        8  15  2004 Yr    3 of   19 Time  21:17:32
  Original Simulation        8  16  2004 Yr    3 of   19 Time  21:17:32
  Original Simulation        8  17  2004 Yr    3 of   19 Time  21:17:32
  Original Simulation        8  18  2004 Yr    3 of   19 Time  21:17:32
  Original Simulation        8  19  2004 Yr    3 of   19 Time  21:17:32
  Original Simulation        8  20  2004 Yr    3 of   19 Time  21:17:32
  Original Simulation        8  21  2004 Yr    3 of   19 Time  21:17:33
  Original Simulation        8  22  2004 Yr    3 of   19 Time  21:17:33
  Original Simulation        8  23  2004 Yr    3 of   19 Time  21:17:33
  Original Simulation        8  24  2004 Yr    3 of   19 Time  21:17:33
  Original Simulation        8  25  2004 Yr    3 of   19 Time  21:17:33
  Original Simulation        8  26  2004 Yr    3 of   19 Time  21:17:33
  Original Simulation        8  27  2004 Yr    3 of   19 Time  21:17:33
  Original Simulation        8  28  2004 Yr    3 of   19 Time  21:17:34
  Original Simulation        8  29  2004 Yr    3 of   19 Time  21:17:34
  Original Simulation        8  30  2004 Yr    3 of   19 Time  21:17:34
  Original Simulation        8  31  2004 Yr    3 of   19 Time  21:17:34
  Original Simulation        9   1  2004 Yr    3 of   19 Time  21:17:34
  Original Simulation        9   2  2004 Yr    3 of   19 Time  21:17:34
  Original Simulation        9   3  2004 Yr    3 of   19 Time  21:17:34
  Original Simulation        9   4  2004 Yr    3 of   19 Time  21:17:34
  Original Simulation        9   5  2004 Yr    3 of   19 Time  21:17:35
  Original Simulation        9   6  2004 Yr    3 of   19 Time  21:17:35
  Original Simulation        9   7  2004 Yr    3 of   19 Time  21:17:35
  Original Simulation        9   8  2004 Yr    3 of   19 Time  21:17:35
  Original Simulation        9   9  2004 Yr    3 of   19 Time  21:17:35
  Original Simulation        9  10  2004 Yr    3 of   19 Time  21:17:35
  Original Simulation        9  11  2004 Yr    3 of   19 Time  21:17:35
  Original Simulation        9  12  2004 Yr    3 of   19 Time  21:17:36
  Original Simulation        9  13  2004 Yr    3 of   19 Time  21:17:36
  Original Simulation        9  14  2004 Yr    3 of   19 Time  21:17:36
  Original Simulation        9  15  2004 Yr    3 of   19 Time  21:17:36
  Original Simulation        9  16  2004 Yr    3 of   19 Time  21:17:36
  Original Simulation        9  17  2004 Yr    3 of   19 Time  21:17:36
  Original Simulation        9  18  2004 Yr    3 of   19 Time  21:17:36
  Original Simulation        9  19  2004 Yr    3 of   19 Time  21:17:37
  Original Simulation        9  20  2004 Yr    3 of   19 Time  21:17:37
  Original Simulation        9  21  2004 Yr    3 of   19 Time  21:17:37
  Original Simulation        9  22  2004 Yr    3 of   19 Time  21:17:37
  Original Simulation        9  23  2004 Yr    3 of   19 Time  21:17:37
  Original Simulation        9  24  2004 Yr    3 of   19 Time  21:17:37
  Original Simulation        9  25  2004 Yr    3 of   19 Time  21:17:37
  Original Simulation        9  26  2004 Yr    3 of   19 Time  21:17:38
  Original Simulation        9  27  2004 Yr    3 of   19 Time  21:17:38
  Original Simulation        9  28  2004 Yr    3 of   19 Time  21:17:38
  Original Simulation        9  29  2004 Yr    3 of   19 Time  21:17:38
  Original Simulation        9  30  2004 Yr    3 of   19 Time  21:17:38
  Original Simulation       10   1  2004 Yr    3 of   19 Time  21:17:38
  Original Simulation       10   2  2004 Yr    3 of   19 Time  21:17:38
  Original Simulation       10   3  2004 Yr    3 of   19 Time  21:17:38
  Original Simulation       10   4  2004 Yr    3 of   19 Time  21:17:39
  Original Simulation       10   5  2004 Yr    3 of   19 Time  21:17:39
  Original Simulation       10   6  2004 Yr    3 of   19 Time  21:17:39
  Original Simulation       10   7  2004 Yr    3 of   19 Time  21:17:39
  Original Simulation       10   8  2004 Yr    3 of   19 Time  21:17:39
  Original Simulation       10   9  2004 Yr    3 of   19 Time  21:17:39
  Original Simulation       10  10  2004 Yr    3 of   19 Time  21:17:39
  Original Simulation       10  11  2004 Yr    3 of   19 Time  21:17:40
  Original Simulation       10  12  2004 Yr    3 of   19 Time  21:17:40
  Original Simulation       10  13  2004 Yr    3 of   19 Time  21:17:40
  Original Simulation       10  14  2004 Yr    3 of   19 Time  21:17:40
  Original Simulation       10  15  2004 Yr    3 of   19 Time  21:17:40
  Original Simulation       10  16  2004 Yr    3 of   19 Time  21:17:40
  Original Simulation       10  17  2004 Yr    3 of   19 Time  21:17:40
  Original Simulation       10  18  2004 Yr    3 of   19 Time  21:17:41
  Original Simulation       10  19  2004 Yr    3 of   19 Time  21:17:41
  Original Simulation       10  20  2004 Yr    3 of   19 Time  21:17:41
  Original Simulation       10  21  2004 Yr    3 of   19 Time  21:17:41
  Original Simulation       10  22  2004 Yr    3 of   19 Time  21:17:41
  Original Simulation       10  23  2004 Yr    3 of   19 Time  21:17:41
  Original Simulation       10  24  2004 Yr    3 of   19 Time  21:17:41
  Original Simulation       10  25  2004 Yr    3 of   19 Time  21:17:41
  Original Simulation       10  26  2004 Yr    3 of   19 Time  21:17:42
  Original Simulation       10  27  2004 Yr    3 of   19 Time  21:17:42
  Original Simulation       10  28  2004 Yr    3 of   19 Time  21:17:42
  Original Simulation       10  29  2004 Yr    3 of   19 Time  21:17:42
  Original Simulation       10  30  2004 Yr    3 of   19 Time  21:17:42
  Original Simulation       10  31  2004 Yr    3 of   19 Time  21:17:42
  Original Simulation       11   1  2004 Yr    3 of   19 Time  21:17:42
  Original Simulation       11   2  2004 Yr    3 of   19 Time  21:17:43
  Original Simulation       11   3  2004 Yr    3 of   19 Time  21:17:43
  Original Simulation       11   4  2004 Yr    3 of   19 Time  21:17:43
  Original Simulation       11   5  2004 Yr    3 of   19 Time  21:17:43
  Original Simulation       11   6  2004 Yr    3 of   19 Time  21:17:43
  Original Simulation       11   7  2004 Yr    3 of   19 Time  21:17:43
  Original Simulation       11   8  2004 Yr    3 of   19 Time  21:17:43
  Original Simulation       11   9  2004 Yr    3 of   19 Time  21:17:44
  Original Simulation       11  10  2004 Yr    3 of   19 Time  21:17:44
  Original Simulation       11  11  2004 Yr    3 of   19 Time  21:17:44
  Original Simulation       11  12  2004 Yr    3 of   19 Time  21:17:44
  Original Simulation       11  13  2004 Yr    3 of   19 Time  21:17:44
  Original Simulation       11  14  2004 Yr    3 of   19 Time  21:17:44
  Original Simulation       11  15  2004 Yr    3 of   19 Time  21:17:44
  Original Simulation       11  16  2004 Yr    3 of   19 Time  21:17:44
  Original Simulation       11  17  2004 Yr    3 of   19 Time  21:17:45
  Original Simulation       11  18  2004 Yr    3 of   19 Time  21:17:45
  Original Simulation       11  19  2004 Yr    3 of   19 Time  21:17:45
  Original Simulation       11  20  2004 Yr    3 of   19 Time  21:17:45
  Original Simulation       11  21  2004 Yr    3 of   19 Time  21:17:45
  Original Simulation       11  22  2004 Yr    3 of   19 Time  21:17:45
  Original Simulation       11  23  2004 Yr    3 of   19 Time  21:17:45
  Original Simulation       11  24  2004 Yr    3 of   19 Time  21:17:46
  Original Simulation       11  25  2004 Yr    3 of   19 Time  21:17:46
  Original Simulation       11  26  2004 Yr    3 of   19 Time  21:17:46
  Original Simulation       11  27  2004 Yr    3 of   19 Time  21:17:46
  Original Simulation       11  28  2004 Yr    3 of   19 Time  21:17:46
  Original Simulation       11  29  2004 Yr    3 of   19 Time  21:17:46
  Original Simulation       11  30  2004 Yr    3 of   19 Time  21:17:46
  Original Simulation       12   1  2004 Yr    3 of   19 Time  21:17:47
  Original Simulation       12   2  2004 Yr    3 of   19 Time  21:17:47
  Original Simulation       12   3  2004 Yr    3 of   19 Time  21:17:47
  Original Simulation       12   4  2004 Yr    3 of   19 Time  21:17:47
  Original Simulation       12   5  2004 Yr    3 of   19 Time  21:17:47
  Original Simulation       12   6  2004 Yr    3 of   19 Time  21:17:47
  Original Simulation       12   7  2004 Yr    3 of   19 Time  21:17:47
  Original Simulation       12   8  2004 Yr    3 of   19 Time  21:17:47
  Original Simulation       12   9  2004 Yr    3 of   19 Time  21:17:48
  Original Simulation       12  10  2004 Yr    3 of   19 Time  21:17:48
  Original Simulation       12  11  2004 Yr    3 of   19 Time  21:17:48
  Original Simulation       12  12  2004 Yr    3 of   19 Time  21:17:48
  Original Simulation       12  13  2004 Yr    3 of   19 Time  21:17:48
  Original Simulation       12  14  2004 Yr    3 of   19 Time  21:17:48
  Original Simulation       12  15  2004 Yr    3 of   19 Time  21:17:48
  Original Simulation       12  16  2004 Yr    3 of   19 Time  21:17:49
  Original Simulation       12  17  2004 Yr    3 of   19 Time  21:17:49
  Original Simulation       12  18  2004 Yr    3 of   19 Time  21:17:49
  Original Simulation       12  19  2004 Yr    3 of   19 Time  21:17:49
  Original Simulation       12  20  2004 Yr    3 of   19 Time  21:17:49
  Original Simulation       12  21  2004 Yr    3 of   19 Time  21:17:49
  Original Simulation       12  22  2004 Yr    3 of   19 Time  21:17:49
  Original Simulation       12  23  2004 Yr    3 of   19 Time  21:17:49
  Original Simulation       12  24  2004 Yr    3 of   19 Time  21:17:50
  Original Simulation       12  25  2004 Yr    3 of   19 Time  21:17:50
  Original Simulation       12  26  2004 Yr    3 of   19 Time  21:17:50
  Original Simulation       12  27  2004 Yr    3 of   19 Time  21:17:50
  Original Simulation       12  28  2004 Yr    3 of   19 Time  21:17:50
  Original Simulation       12  29  2004 Yr    3 of   19 Time  21:17:50
  Original Simulation       12  30  2004 Yr    3 of   19 Time  21:17:50
  Original Simulation       12  31  2004 Yr    3 of   19 Time  21:17:51
  Original Simulation        1   1  2005 Yr    4 of   19 Time  21:17:51
  Original Simulation        1   2  2005 Yr    4 of   19 Time  21:17:51
  Original Simulation        1   3  2005 Yr    4 of   19 Time  21:17:51
  Original Simulation        1   4  2005 Yr    4 of   19 Time  21:17:51
  Original Simulation        1   5  2005 Yr    4 of   19 Time  21:17:51
  Original Simulation        1   6  2005 Yr    4 of   19 Time  21:17:51
[...]
  Original Simulation        3  31  2020 Yr   19 of   19 Time  21:31:47
  Original Simulation        4   1  2020 Yr   19 of   19 Time  21:31:48
  Original Simulation        4   2  2020 Yr   19 of   19 Time  21:31:48
  Original Simulation        4   3  2020 Yr   19 of   19 Time  21:31:48
  Original Simulation        4   4  2020 Yr   19 of   19 Time  21:31:48
  Original Simulation        4   5  2020 Yr   19 of   19 Time  21:31:48
  Original Simulation        4   6  2020 Yr   19 of   19 Time  21:31:48
  Original Simulation        4   7  2020 Yr   19 of   19 Time  21:31:48
  Original Simulation        4   8  2020 Yr   19 of   19 Time  21:31:49
  Original Simulation        4   9  2020 Yr   19 of   19 Time  21:31:49
  Original Simulation        4  10  2020 Yr   19 of   19 Time  21:31:49
  Original Simulation        4  11  2020 Yr   19 of   19 Time  21:31:49
  Original Simulation        4  12  2020 Yr   19 of   19 Time  21:31:49
  Original Simulation        4  13  2020 Yr   19 of   19 Time  21:31:49
  Original Simulation        4  14  2020 Yr   19 of   19 Time  21:31:50
  Original Simulation        4  15  2020 Yr   19 of   19 Time  21:31:50
  Original Simulation        4  16  2020 Yr   19 of   19 Time  21:31:50
  Original Simulation        4  17  2020 Yr   19 of   19 Time  21:31:50
  Original Simulation        4  18  2020 Yr   19 of   19 Time  21:31:50
  Original Simulation        4  19  2020 Yr   19 of   19 Time  21:31:50
  Original Simulation        4  20  2020 Yr   19 of   19 Time  21:31:50
  Original Simulation        4  21  2020 Yr   19 of   19 Time  21:31:51
  Original Simulation        4  22  2020 Yr   19 of   19 Time  21:31:51
  Original Simulation        4  23  2020 Yr   19 of   19 Time  21:31:51
  Original Simulation        4  24  2020 Yr   19 of   19 Time  21:31:51
  Original Simulation        4  25  2020 Yr   19 of   19 Time  21:31:51
  Original Simulation        4  26  2020 Yr   19 of   19 Time  21:31:51
  Original Simulation        4  27  2020 Yr   19 of   19 Time  21:31:51
  Original Simulation        4  28  2020 Yr   19 of   19 Time  21:31:52
  Original Simulation        4  29  2020 Yr   19 of   19 Time  21:31:52
  Original Simulation        4  30  2020 Yr   19 of   19 Time  21:31:52
  Original Simulation        5   1  2020 Yr   19 of   19 Time  21:31:52
  Original Simulation        5   2  2020 Yr   19 of   19 Time  21:31:52
  Original Simulation        5   3  2020 Yr   19 of   19 Time  21:31:52
  Original Simulation        5   4  2020 Yr   19 of   19 Time  21:31:53
  Original Simulation        5   5  2020 Yr   19 of   19 Time  21:31:53
  Original Simulation        5   6  2020 Yr   19 of   19 Time  21:31:53
  Original Simulation        5   7  2020 Yr   19 of   19 Time  21:31:53
  Original Simulation        5   8  2020 Yr   19 of   19 Time  21:31:53
  Original Simulation        5   9  2020 Yr   19 of   19 Time  21:31:53
  Original Simulation        5  10  2020 Yr   19 of   19 Time  21:31:53
  Original Simulation        5  11  2020 Yr   19 of   19 Time  21:31:54
  Original Simulation        5  12  2020 Yr   19 of   19 Time  21:31:54
  Original Simulation        5  13  2020 Yr   19 of   19 Time  21:31:54
  Original Simulation        5  14  2020 Yr   19 of   19 Time  21:31:54
  Original Simulation        5  15  2020 Yr   19 of   19 Time  21:31:54
  Original Simulation        5  16  2020 Yr   19 of   19 Time  21:31:54
  Original Simulation        5  17  2020 Yr   19 of   19 Time  21:31:55
  Original Simulation        5  18  2020 Yr   19 of   19 Time  21:31:55
  Original Simulation        5  19  2020 Yr   19 of   19 Time  21:31:55
  Original Simulation        5  20  2020 Yr   19 of   19 Time  21:31:55
  Original Simulation        5  21  2020 Yr   19 of   19 Time  21:31:55
  Original Simulation        5  22  2020 Yr   19 of   19 Time  21:31:55
  Original Simulation        5  23  2020 Yr   19 of   19 Time  21:31:55
  Original Simulation        5  24  2020 Yr   19 of   19 Time  21:31:56
  Original Simulation        5  25  2020 Yr   19 of   19 Time  21:31:56
  Original Simulation        5  26  2020 Yr   19 of   19 Time  21:31:56
  Original Simulation        5  27  2020 Yr   19 of   19 Time  21:31:56
  Original Simulation        5  28  2020 Yr   19 of   19 Time  21:31:56
  Original Simulation        5  29  2020 Yr   19 of   19 Time  21:31:56
  Original Simulation        5  30  2020 Yr   19 of   19 Time  21:31:56
  Original Simulation        5  31  2020 Yr   19 of   19 Time  21:31:57
  Original Simulation        6   1  2020 Yr   19 of   19 Time  21:31:57
  Original Simulation        6   2  2020 Yr   19 of   19 Time  21:31:57
  Original Simulation        6   3  2020 Yr   19 of   19 Time  21:31:57
  Original Simulation        6   4  2020 Yr   19 of   19 Time  21:31:57
  Original Simulation        6   5  2020 Yr   19 of   19 Time  21:31:57
  Original Simulation        6   6  2020 Yr   19 of   19 Time  21:31:58
  Original Simulation        6   7  2020 Yr   19 of   19 Time  21:31:58
  Original Simulation        6   8  2020 Yr   19 of   19 Time  21:31:58
  Original Simulation        6   9  2020 Yr   19 of   19 Time  21:31:58
  Original Simulation        6  10  2020 Yr   19 of   19 Time  21:31:58
  Original Simulation        6  11  2020 Yr   19 of   19 Time  21:31:58
  Original Simulation        6  12  2020 Yr   19 of   19 Time  21:31:58
  Original Simulation        6  13  2020 Yr   19 of   19 Time  21:31:59
  Original Simulation        6  14  2020 Yr   19 of   19 Time  21:31:59
  Original Simulation        6  15  2020 Yr   19 of   19 Time  21:31:59
  Original Simulation        6  16  2020 Yr   19 of   19 Time  21:31:59
  Original Simulation        6  17  2020 Yr   19 of   19 Time  21:31:59
  Original Simulation        6  18  2020 Yr   19 of   19 Time  21:31:59
  Original Simulation        6  19  2020 Yr   19 of   19 Time  21:32: 0
  Original Simulation        6  20  2020 Yr   19 of   19 Time  21:32: 0
  Original Simulation        6  21  2020 Yr   19 of   19 Time  21:32: 0
  Original Simulation        6  22  2020 Yr   19 of   19 Time  21:32: 0
  Original Simulation        6  23  2020 Yr   19 of   19 Time  21:32: 0
  Original Simulation        6  24  2020 Yr   19 of   19 Time  21:32: 0
  Original Simulation        6  25  2020 Yr   19 of   19 Time  21:32: 0
  Original Simulation        6  26  2020 Yr   19 of   19 Time  21:32: 1
  Original Simulation        6  27  2020 Yr   19 of   19 Time  21:32: 1
  Original Simulation        6  28  2020 Yr   19 of   19 Time  21:32: 1
  Original Simulation        6  29  2020 Yr   19 of   19 Time  21:32: 1
  Original Simulation        6  30  2020 Yr   19 of   19 Time  21:32: 1
  Original Simulation        7   1  2020 Yr   19 of   19 Time  21:32: 1
  Original Simulation        7   2  2020 Yr   19 of   19 Time  21:32: 1
  Original Simulation        7   3  2020 Yr   19 of   19 Time  21:32: 2
  Original Simulation        7   4  2020 Yr   19 of   19 Time  21:32: 2
  Original Simulation        7   5  2020 Yr   19 of   19 Time  21:32: 2
  Original Simulation        7   6  2020 Yr   19 of   19 Time  21:32: 2
  Original Simulation        7   7  2020 Yr   19 of   19 Time  21:32: 2
  Original Simulation        7   8  2020 Yr   19 of   19 Time  21:32: 2
  Original Simulation        7   9  2020 Yr   19 of   19 Time  21:32: 3
  Original Simulation        7  10  2020 Yr   19 of   19 Time  21:32: 3
  Original Simulation        7  11  2020 Yr   19 of   19 Time  21:32: 3
  Original Simulation        7  12  2020 Yr   19 of   19 Time  21:32: 3
  Original Simulation        7  13  2020 Yr   19 of   19 Time  21:32: 3
  Original Simulation        7  14  2020 Yr   19 of   19 Time  21:32: 3
  Original Simulation        7  15  2020 Yr   19 of   19 Time  21:32: 3
  Original Simulation        7  16  2020 Yr   19 of   19 Time  21:32: 4
  Original Simulation        7  17  2020 Yr   19 of   19 Time  21:32: 4
  Original Simulation        7  18  2020 Yr   19 of   19 Time  21:32: 4
  Original Simulation        7  19  2020 Yr   19 of   19 Time  21:32: 4
  Original Simulation        7  20  2020 Yr   19 of   19 Time  21:32: 4
  Original Simulation        7  21  2020 Yr   19 of   19 Time  21:32: 4
  Original Simulation        7  22  2020 Yr   19 of   19 Time  21:32: 4
  Original Simulation        7  23  2020 Yr   19 of   19 Time  21:32: 5
  Original Simulation        7  24  2020 Yr   19 of   19 Time  21:32: 5
  Original Simulation        7  25  2020 Yr   19 of   19 Time  21:32: 5
  Original Simulation        7  26  2020 Yr   19 of   19 Time  21:32: 5
  Original Simulation        7  27  2020 Yr   19 of   19 Time  21:32: 5
  Original Simulation        7  28  2020 Yr   19 of   19 Time  21:32: 5
  Original Simulation        7  29  2020 Yr   19 of   19 Time  21:32: 6
  Original Simulation        7  30  2020 Yr   19 of   19 Time  21:32: 6
  Original Simulation        7  31  2020 Yr   19 of   19 Time  21:32: 6
  Original Simulation        8   1  2020 Yr   19 of   19 Time  21:32: 6
  Original Simulation        8   2  2020 Yr   19 of   19 Time  21:32: 6
  Original Simulation        8   3  2020 Yr   19 of   19 Time  21:32: 6
  Original Simulation        8   4  2020 Yr   19 of   19 Time  21:32: 6
  Original Simulation        8   5  2020 Yr   19 of   19 Time  21:32: 7
  Original Simulation        8   6  2020 Yr   19 of   19 Time  21:32: 7
  Original Simulation        8   7  2020 Yr   19 of   19 Time  21:32: 7
  Original Simulation        8   8  2020 Yr   19 of   19 Time  21:32: 7
  Original Simulation        8   9  2020 Yr   19 of   19 Time  21:32: 7
  Original Simulation        8  10  2020 Yr   19 of   19 Time  21:32: 7
  Original Simulation        8  11  2020 Yr   19 of   19 Time  21:32: 7
  Original Simulation        8  12  2020 Yr   19 of   19 Time  21:32: 8
  Original Simulation        8  13  2020 Yr   19 of   19 Time  21:32: 8
  Original Simulation        8  14  2020 Yr   19 of   19 Time  21:32: 8
  Original Simulation        8  15  2020 Yr   19 of   19 Time  21:32: 8
  Original Simulation        8  16  2020 Yr   19 of   19 Time  21:32: 8
  Original Simulation        8  17  2020 Yr   19 of   19 Time  21:32: 8
  Original Simulation        8  18  2020 Yr   19 of   19 Time  21:32: 9
  Original Simulation        8  19  2020 Yr   19 of   19 Time  21:32: 9
  Original Simulation        8  20  2020 Yr   19 of   19 Time  21:32: 9
  Original Simulation        8  21  2020 Yr   19 of   19 Time  21:32: 9
  Original Simulation        8  22  2020 Yr   19 of   19 Time  21:32: 9
  Original Simulation        8  23  2020 Yr   19 of   19 Time  21:32: 9
  Original Simulation        8  24  2020 Yr   19 of   19 Time  21:32: 9
  Original Simulation        8  25  2020 Yr   19 of   19 Time  21:32:10
  Original Simulation        8  26  2020 Yr   19 of   19 Time  21:32:10
  Original Simulation        8  27  2020 Yr   19 of   19 Time  21:32:10
  Original Simulation        8  28  2020 Yr   19 of   19 Time  21:32:10
  Original Simulation        8  29  2020 Yr   19 of   19 Time  21:32:10
  Original Simulation        8  30  2020 Yr   19 of   19 Time  21:32:10
  Original Simulation        8  31  2020 Yr   19 of   19 Time  21:32:10
  Original Simulation        9   1  2020 Yr   19 of   19 Time  21:32:11
  Original Simulation        9   2  2020 Yr   19 of   19 Time  21:32:11
  Original Simulation        9   3  2020 Yr   19 of   19 Time  21:32:11
  Original Simulation        9   4  2020 Yr   19 of   19 Time  21:32:11
  Original Simulation        9   5  2020 Yr   19 of   19 Time  21:32:11
  Original Simulation        9   6  2020 Yr   19 of   19 Time  21:32:11
  Original Simulation        9   7  2020 Yr   19 of   19 Time  21:32:12
  Original Simulation        9   8  2020 Yr   19 of   19 Time  21:32:12
  Original Simulation        9   9  2020 Yr   19 of   19 Time  21:32:12
  Original Simulation        9  10  2020 Yr   19 of   19 Time  21:32:12
  Original Simulation        9  11  2020 Yr   19 of   19 Time  21:32:12
  Original Simulation        9  12  2020 Yr   19 of   19 Time  21:32:12
  Original Simulation        9  13  2020 Yr   19 of   19 Time  21:32:12
  Original Simulation        9  14  2020 Yr   19 of   19 Time  21:32:13
  Original Simulation        9  15  2020 Yr   19 of   19 Time  21:32:13
  Original Simulation        9  16  2020 Yr   19 of   19 Time  21:32:13
  Original Simulation        9  17  2020 Yr   19 of   19 Time  21:32:13
  Original Simulation        9  18  2020 Yr   19 of   19 Time  21:32:13
  Original Simulation        9  19  2020 Yr   19 of   19 Time  21:32:13
  Original Simulation        9  20  2020 Yr   19 of   19 Time  21:32:13
  Original Simulation        9  21  2020 Yr   19 of   19 Time  21:32:14
  Original Simulation        9  22  2020 Yr   19 of   19 Time  21:32:14
  Original Simulation        9  23  2020 Yr   19 of   19 Time  21:32:14
  Original Simulation        9  24  2020 Yr   19 of   19 Time  21:32:14
  Original Simulation        9  25  2020 Yr   19 of   19 Time  21:32:14
  Original Simulation        9  26  2020 Yr   19 of   19 Time  21:32:14
  Original Simulation        9  27  2020 Yr   19 of   19 Time  21:32:15
  Original Simulation        9  28  2020 Yr   19 of   19 Time  21:32:15
  Original Simulation        9  29  2020 Yr   19 of   19 Time  21:32:15
  Original Simulation        9  30  2020 Yr   19 of   19 Time  21:32:15
  Original Simulation       10   1  2020 Yr   19 of   19 Time  21:32:15
  Original Simulation       10   2  2020 Yr   19 of   19 Time  21:32:15
  Original Simulation       10   3  2020 Yr   19 of   19 Time  21:32:15
  Original Simulation       10   4  2020 Yr   19 of   19 Time  21:32:16
  Original Simulation       10   5  2020 Yr   19 of   19 Time  21:32:16
  Original Simulation       10   6  2020 Yr   19 of   19 Time  21:32:16
  Original Simulation       10   7  2020 Yr   19 of   19 Time  21:32:16
  Original Simulation       10   8  2020 Yr   19 of   19 Time  21:32:16
  Original Simulation       10   9  2020 Yr   19 of   19 Time  21:32:16
  Original Simulation       10  10  2020 Yr   19 of   19 Time  21:32:16
  Original Simulation       10  11  2020 Yr   19 of   19 Time  21:32:17
  Original Simulation       10  12  2020 Yr   19 of   19 Time  21:32:17
  Original Simulation       10  13  2020 Yr   19 of   19 Time  21:32:17
  Original Simulation       10  14  2020 Yr   19 of   19 Time  21:32:17
  Original Simulation       10  15  2020 Yr   19 of   19 Time  21:32:17
  Original Simulation       10  16  2020 Yr   19 of   19 Time  21:32:17
  Original Simulation       10  17  2020 Yr   19 of   19 Time  21:32:17
  Original Simulation       10  18  2020 Yr   19 of   19 Time  21:32:18
  Original Simulation       10  19  2020 Yr   19 of   19 Time  21:32:18
  Original Simulation       10  20  2020 Yr   19 of   19 Time  21:32:18
  Original Simulation       10  21  2020 Yr   19 of   19 Time  21:32:18
  Original Simulation       10  22  2020 Yr   19 of   19 Time  21:32:18
  Original Simulation       10  23  2020 Yr   19 of   19 Time  21:32:18
  Original Simulation       10  24  2020 Yr   19 of   19 Time  21:32:19
  Original Simulation       10  25  2020 Yr   19 of   19 Time  21:32:19
  Original Simulation       10  26  2020 Yr   19 of   19 Time  21:32:19
  Original Simulation       10  27  2020 Yr   19 of   19 Time  21:32:19
  Original Simulation       10  28  2020 Yr   19 of   19 Time  21:32:19
  Original Simulation       10  29  2020 Yr   19 of   19 Time  21:32:19
  Original Simulation       10  30  2020 Yr   19 of   19 Time  21:32:19
  Original Simulation       10  31  2020 Yr   19 of   19 Time  21:32:20
  Original Simulation       11   1  2020 Yr   19 of   19 Time  21:32:20
  Original Simulation       11   2  2020 Yr   19 of   19 Time  21:32:20
  Original Simulation       11   3  2020 Yr   19 of   19 Time  21:32:20
  Original Simulation       11   4  2020 Yr   19 of   19 Time  21:32:20
  Original Simulation       11   5  2020 Yr   19 of   19 Time  21:32:20
  Original Simulation       11   6  2020 Yr   19 of   19 Time  21:32:20
  Original Simulation       11   7  2020 Yr   19 of   19 Time  21:32:21
  Original Simulation       11   8  2020 Yr   19 of   19 Time  21:32:21
  Original Simulation       11   9  2020 Yr   19 of   19 Time  21:32:21
  Original Simulation       11  10  2020 Yr   19 of   19 Time  21:32:21
  Original Simulation       11  11  2020 Yr   19 of   19 Time  21:32:21
  Original Simulation       11  12  2020 Yr   19 of   19 Time  21:32:21
  Original Simulation       11  13  2020 Yr   19 of   19 Time  21:32:22
  Original Simulation       11  14  2020 Yr   19 of   19 Time  21:32:22
  Original Simulation       11  15  2020 Yr   19 of   19 Time  21:32:22
  Original Simulation       11  16  2020 Yr   19 of   19 Time  21:32:22
  Original Simulation       11  17  2020 Yr   19 of   19 Time  21:32:22
  Original Simulation       11  18  2020 Yr   19 of   19 Time  21:32:22
  Original Simulation       11  19  2020 Yr   19 of   19 Time  21:32:22
  Original Simulation       11  20  2020 Yr   19 of   19 Time  21:32:23
  Original Simulation       11  21  2020 Yr   19 of   19 Time  21:32:23
  Original Simulation       11  22  2020 Yr   19 of   19 Time  21:32:23
  Original Simulation       11  23  2020 Yr   19 of   19 Time  21:32:23
  Original Simulation       11  24  2020 Yr   19 of   19 Time  21:32:23
  Original Simulation       11  25  2020 Yr   19 of   19 Time  21:32:23
  Original Simulation       11  26  2020 Yr   19 of   19 Time  21:32:23
  Original Simulation       11  27  2020 Yr   19 of   19 Time  21:32:24
  Original Simulation       11  28  2020 Yr   19 of   19 Time  21:32:24
  Original Simulation       11  29  2020 Yr   19 of   19 Time  21:32:24
  Original Simulation       11  30  2020 Yr   19 of   19 Time  21:32:24
  Original Simulation       12   1  2020 Yr   19 of   19 Time  21:32:24
  Original Simulation       12   2  2020 Yr   19 of   19 Time  21:32:24
  Original Simulation       12   3  2020 Yr   19 of   19 Time  21:32:24
  Original Simulation       12   4  2020 Yr   19 of   19 Time  21:32:25
  Original Simulation       12   5  2020 Yr   19 of   19 Time  21:32:25
  Original Simulation       12   6  2020 Yr   19 of   19 Time  21:32:25
  Original Simulation       12   7  2020 Yr   19 of   19 Time  21:32:25
  Original Simulation       12   8  2020 Yr   19 of   19 Time  21:32:25
  Original Simulation       12   9  2020 Yr   19 of   19 Time  21:32:25
  Original Simulation       12  10  2020 Yr   19 of   19 Time  21:32:25
  Original Simulation       12  11  2020 Yr   19 of   19 Time  21:32:26
  Original Simulation       12  12  2020 Yr   19 of   19 Time  21:32:26
  Original Simulation       12  13  2020 Yr   19 of   19 Time  21:32:26
  Original Simulation       12  14  2020 Yr   19 of   19 Time  21:32:26
  Original Simulation       12  15  2020 Yr   19 of   19 Time  21:32:26
  Original Simulation       12  16  2020 Yr   19 of   19 Time  21:32:26
  Original Simulation       12  17  2020 Yr   19 of   19 Time  21:32:26
  Original Simulation       12  18  2020 Yr   19 of   19 Time  21:32:27
  Original Simulation       12  19  2020 Yr   19 of   19 Time  21:32:27
  Original Simulation       12  20  2020 Yr   19 of   19 Time  21:32:27
  Original Simulation       12  21  2020 Yr   19 of   19 Time  21:32:27
  Original Simulation       12  22  2020 Yr   19 of   19 Time  21:32:27
  Original Simulation       12  23  2020 Yr   19 of   19 Time  21:32:27
  Original Simulation       12  24  2020 Yr   19 of   19 Time  21:32:27
  Original Simulation       12  25  2020 Yr   19 of   19 Time  21:32:28
  Original Simulation       12  26  2020 Yr   19 of   19 Time  21:32:28
  Original Simulation       12  27  2020 Yr   19 of   19 Time  21:32:28
  Original Simulation       12  28  2020 Yr   19 of   19 Time  21:32:28
  Original Simulation       12  29  2020 Yr   19 of   19 Time  21:32:28
  Original Simulation       12  30  2020 Yr   19 of   19 Time  21:32:28
  Original Simulation       12  31  2020 Yr   19 of   19 Time  21:32:28

 Execution successfully completed 

  Date of Sim  10/29/2024 Time  21:32:29
