 cs4_project               SWAT+ Jan 11 2024        MODULAR Rev 2024.61.0                                 
                                        zmx       usle_k       sumfc       sumul      usle_p     usle_ls        esco        epco     cn3_swf       perco     latq_co   tiledrain 
 sname           hydgrp                 (mm)                    (mm)        (mm)                                                                                     0=notile;1=tile;
s622            C                  1500.0000      0.0000    253.5050    487.3851      1.0000      0.1200      0.9500      1.0000      0.9500      0.5000      0.0100           0
s599            B                  1500.0000      0.0000    250.5650    502.3697      1.0000      0.6426      0.9500      1.0000      0.3000      0.9000      0.2000           0
s226            B                  1500.0000      0.0000    222.3050    489.1381      1.0000      0.2238      0.9500      1.0000      0.9500      0.9000      0.0100           0
s537            B                  1500.0000      0.0000    252.6025    599.1750      1.0000      0.2580      0.9500      1.0000      0.9500      0.9000      0.0100           0
s417            A                  1500.0000      0.0000    192.1400    583.1101      1.0000      0.3127      0.9500      1.0000      0.9500      0.9000      0.0100           0
s587            C                  1500.0000      0.0000    255.9350    517.9653      1.0000      0.1993      0.9500      1.0000      0.9500      0.5000      0.0100           0
s207            B                  1500.0000      0.0000    240.0200    521.1714      1.0000      0.1692      0.9500      1.0000      0.9500      0.9000      0.0100           0
s97             B                  1500.0000      0.0000    243.9575    528.0076      1.0000      0.1085      0.9500      1.0000      0.9500      0.9000      0.0100           0
s754            C                  1500.0000      0.0000    250.3900    472.7796      1.0000      0.3002      0.9500      1.0000      0.3000      0.5000      0.2000           0
s754            C                  1500.0000      0.0000    250.3900    472.7796      1.0000      0.1971      0.9500      1.0000      0.9500      0.5000      0.0100           0
s754            C                  1500.0000      0.0000    250.3900    472.7796      1.0000      0.1910      0.9500      1.0000      0.9500      0.5000      0.0100           0
s96             A                  1500.0000      0.0000    243.9575    528.0076      1.0000      0.2391      0.9500      1.0000      0.9500      0.9000      0.0100           0
s96             A                  1500.0000      0.0000    243.9575    528.0076      1.0000      0.2172      0.9500      1.0000      0.9500      0.9000      0.0100           0
s206            A                  1500.0000      0.0000    240.0200    521.1714      1.0000      0.1936      0.9500      1.0000      0.9500      0.9000      0.0100           0
s392            C                  1500.0000      0.0000    222.7950    482.0068      1.0000      0.6887      0.9500      1.0000      0.0000      0.5000      0.9000           0
s97             B                  1500.0000      0.0000    243.9575    528.0076      1.0000      0.2290      0.9500      1.0000      0.9500      0.9000      0.0100           0
s97             B                  1500.0000      0.0000    243.9575    528.0076      1.0000      0.5878      0.9500      1.0000      0.3000      0.9000      0.2000           0
s236            B                  1500.0000      0.0000    245.5475    490.6274      1.0000      1.9172      0.9500      1.0000      0.0000      0.5000      0.9000           0
s43             B                  1500.0000      0.0000    231.8900    469.2791      1.0000      0.1899      0.9500      1.0000      0.9500      0.9000      0.0100           0
s43             B                  1500.0000      0.0000    231.8900    469.2791      1.0000      0.4795      0.9500      1.0000      0.3000      0.9000      0.2000           0
s622            C                  1500.0000      0.0000    253.5050    487.3851      1.0000      0.2824      0.9500      1.0000      0.3000      0.5000      0.2000           0
s236            B                  1500.0000      0.0000    245.5475    490.6274      1.0000      0.1955      0.9500      1.0000      0.9500      0.9000      0.0100           0
s236            B                  1500.0000      0.0000    245.5475    490.6274      1.0000      0.1642      0.9500      1.0000      0.9500      0.9000      0.0100           0
s43             B                  1500.0000      0.0000    231.8900    469.2791      1.0000      0.1689      0.9500      1.0000      0.9500      0.9000      0.0100           0
s117            C                  1500.0000      0.0000    242.0450    512.5704      1.0000      0.2600      0.9500      1.0000      0.3000      0.5000      0.2000           0
s762            C                  1500.0000      0.0000    242.4900    456.4974      1.0000      0.3773      0.9500      1.0000      0.3000      0.5000      0.2000           0
s98             C                  1500.0000      0.0000    243.9575    528.0076      1.0000      0.1480      0.9500      1.0000      0.9500      0.5000      0.0100           0
s98             C                  1500.0000      0.0000    243.9575    528.0076      1.0000      0.1291      0.9500      1.0000      0.9500      0.5000      0.0100           0
s762            C                  1500.0000      0.0000    242.4900    456.4974      1.0000      0.1390      0.9500      1.0000      0.9500      0.5000      0.0100           0
s762            C                  1500.0000      0.0000    242.4900    456.4974      1.0000      0.2272      0.9500      1.0000      0.3000      0.5000      0.2000           0
s206            A                  1500.0000      0.0000    240.0200    521.1714      1.0000      0.1750      0.9500      1.0000      0.9500      0.9000      0.0100           0
s621            B                  1500.0000      0.0000    253.5050    487.3851      1.0000      0.2167      0.9500      1.0000      0.9500      0.9000      0.0100           0
s599            B                  1500.0000      0.0000    250.5650    502.3697      1.0000      0.2633      0.9500      1.0000      0.9500      0.9000      0.0100           0
s586            B                  1500.0000      0.0000    255.9350    517.9653      1.0000      0.2609      0.9500      1.0000      0.9500      0.9000      0.0100           0
s116            B                  1500.0000      0.0000    242.0450    512.5704      1.0000      0.1851      0.9500      1.0000      0.9500      0.9000      0.0100           0
s337            A                  1500.0000      0.0000    155.9975    583.1698      1.0000      0.1540      0.9500      1.0000      0.9500      0.9000      0.0100           0
s346            A                  1500.0000      0.0000    162.8525    570.9705      1.0000      0.1468      0.9500      1.0000      0.9500      0.9000      0.0100           0
s116            B                  1500.0000      0.0000    242.0450    512.5704      1.0000      0.1731      0.9500      1.0000      0.9500      0.9000      0.0100           0
s116            B                  1500.0000      0.0000    242.0450    512.5704      1.0000      0.2713      0.9500      1.0000      0.9500      0.9000      0.0100           0
s116            B                  1500.0000      0.0000    242.0450    512.5704      1.0000      0.2571      0.9500      1.0000      0.9500      0.9000      0.0100           0
s116            B                  1500.0000      0.0000    242.0450    512.5704      1.0000      0.1646      0.9500      1.0000      0.9500      0.9000      0.0100           0
s116            B                  1500.0000      0.0000    242.0450    512.5704      1.0000      0.2748      0.9500      1.0000      0.9500      0.9000      0.0100           0
s398            A                  1500.0000      0.0000    211.8650    461.0525      1.0000      0.8741      0.9500      1.0000      0.3000      0.9000      0.2000           0
s398            A                  1500.0000      0.0000    211.8650    461.0525      1.0000      0.5646      0.9500      1.0000      0.9500      0.9000      0.0100           0
s398            A                  1500.0000      0.0000    211.8650    461.0525      1.0000      0.4509      0.9500      1.0000      0.9500      0.9000      0.0100           0
s669            B                  1500.0000      0.0000    256.9775    516.2079      1.0000      0.1723      0.9500      1.0000      0.9500      0.9000      0.0100           0
s483            A                  1500.0000      0.0000    224.2625    504.7028      1.0000      0.2700      0.9500      1.0000      0.9500      0.9000      0.0100           0
s207            B                  1500.0000      0.0000    240.0200    521.1714      1.0000      0.5055      0.9500      1.0000      0.3000      0.9000      0.2000           0
s116            B                  1500.0000      0.0000    242.0450    512.5704      1.0000      0.5450      0.9500      1.0000      0.3000      0.9000      0.2000           0
s184            B                  1500.0000      0.0000    241.7000    587.4943      1.0000      0.3820      0.9500      1.0000      0.9500      0.9000      0.0100           0
s435            A                  1500.0000      0.0000    219.6200    571.5744      1.0000      0.5376      0.9500      1.0000      0.9500      0.9000      0.0100           0
s184            B                  1500.0000      0.0000    241.7000    587.4943      1.0000      0.3277      0.9500      1.0000      0.9500      0.9000      0.0100           0
s180            D                  1500.0000      0.0000    241.7000    587.4943      1.0000      0.3492      0.9500      1.0000      0.3000      0.0500      0.2000           0
s310            D                  1500.0000      0.0000    305.8050    763.1007      1.0000      0.5257      0.9500      1.0000      0.0000      0.0500      0.9000           0
s483            A                  1500.0000      0.0000    224.2625    504.7028      1.0000      0.5747      0.9500      1.0000      0.9500      0.9000      0.0100           0
s116            B                  1500.0000      0.0000    242.0450    512.5704      1.0000      0.5295      0.9500      1.0000      0.3000      0.9000      0.2000           0
s207            B                  1500.0000      0.0000    240.0200    521.1714      1.0000      0.2094      0.9500      1.0000      0.9500      0.9000      0.0100           0
s207            B                  1500.0000      0.0000    240.0200    521.1714      1.0000      0.7013      0.9500      1.0000      0.0000      0.5000      0.9000           0
s483            A                  1500.0000      0.0000    224.2625    504.7028      1.0000      0.2851      0.9500      1.0000      0.9500      0.9000      0.0100           0
s207            B                  1500.0000      0.0000    240.0200    521.1714      1.0000      0.9745      0.9500      1.0000      0.0000      0.5000      0.9000           0
s483            A                  1500.0000      0.0000    224.2625    504.7028      1.0000      0.2347      0.9500      1.0000      0.9500      0.9000      0.0100           0
s483            A                  1500.0000      0.0000    224.2625    504.7028      1.0000      0.5953      0.9500      1.0000      0.9500      0.9000      0.0100           0
s483            A                  1500.0000      0.0000    224.2625    504.7028      1.0000      0.2795      0.9500      1.0000      0.9500      0.9000      0.0100           0
s435            A                  1500.0000      0.0000    219.6200    571.5744      1.0000      0.3795      0.9500      1.0000      0.9500      0.9000      0.0100           0
s435            A                  1500.0000      0.0000    219.6200    571.5744      1.0000      0.2581      0.9500      1.0000      0.9500      0.9000      0.0100           0
s483            A                  1500.0000      0.0000    224.2625    504.7028      1.0000      0.3244      0.9500      1.0000      0.9500      0.9000      0.0100           0
s290            A                  1500.0000      0.0000    247.8700    780.1487      1.0000      0.2966      0.9500      1.0000      0.9500      0.9000      0.0100           0
s337            A                  1500.0000      0.0000    155.9975    583.1698      1.0000      0.2445      0.9500      1.0000      0.9500      0.9000      0.0100           0
s337            A                  1500.0000      0.0000    155.9975    583.1698      1.0000      0.1766      0.9500      1.0000      0.9500      0.9000      0.0100           0
s435            A                  1500.0000      0.0000    219.6200    571.5744      1.0000      0.2624      0.9500      1.0000      0.9500      0.9000      0.0100           0
s622            C                  1500.0000      0.0000    253.5050    487.3851      1.0000      0.1846      0.9500      1.0000      0.9500      0.5000      0.0100           0
s622            C                  1500.0000      0.0000    253.5050    487.3851      1.0000      0.1756      0.9500      1.0000      0.9500      0.5000      0.0100           0
s664            C                  1500.0000      0.0000    263.1050    556.3831      1.0000      0.1698      0.9500      1.0000      0.9500      0.5000      0.0100           0
s637            C                  1500.0000      0.0000    246.9100    471.3891      1.0000      0.3340      0.9500      1.0000      0.3000      0.5000      0.2000           0
s98             C                  1500.0000      0.0000    243.9575    528.0076      1.0000      0.1335      0.9500      1.0000      0.9500      0.5000      0.0100           0
s484            B                  1500.0000      0.0000    224.2625    504.7028      1.0000      0.2533      0.9500      1.0000      0.9500      0.9000      0.0100           0
s484            B                  1500.0000      0.0000    224.2625    504.7028      1.0000      0.1766      0.9500      1.0000      0.9500      0.9000      0.0100           0
s483            A                  1500.0000      0.0000    224.2625    504.7028      1.0000      0.2173      0.9500      1.0000      0.9500      0.9000      0.0100           0
s484            B                  1500.0000      0.0000    224.2625    504.7028      1.0000      0.2851      0.9500      1.0000      0.9500      0.9000      0.0100           0
s484            B                  1500.0000      0.0000    224.2625    504.7028      1.0000      0.1633      0.9500      1.0000      0.9500      0.9000      0.0100           0
s435            A                  1500.0000      0.0000    219.6200    571.5744      1.0000      0.3811      0.9500      1.0000      0.9500      0.9000      0.0100           0
s435            A                  1500.0000      0.0000    219.6200    571.5744      1.0000      0.3835      0.9500      1.0000      0.9500      0.9000      0.0100           0
s466            B                  1500.0000      0.0000    232.9500    525.2980      1.0000      0.4109      0.9500      1.0000      0.3000      0.9000      0.2000           0
s435            A                  1500.0000      0.0000    219.6200    571.5744      1.0000      0.3195      0.9500      1.0000      0.9500      0.9000      0.0100           0
s466            B                  1500.0000      0.0000    232.9500    525.2980      1.0000      0.4591      0.9500      1.0000      0.3000      0.9000      0.2000           0
s207            B                  1500.0000      0.0000    240.0200    521.1714      1.0000      0.1799      0.9500      1.0000      0.9500      0.9000      0.0100           0
s435            A                  1500.0000      0.0000    219.6200    571.5744      1.0000      0.2168      0.9500      1.0000      0.9500      0.9000      0.0100           0
s116            B                  1500.0000      0.0000    242.0450    512.5704      1.0000      0.1848      0.9500      1.0000      0.9500      0.9000      0.0100           0
s621            B                  1500.0000      0.0000    253.5050    487.3851      1.0000      0.1504      0.9500      1.0000      0.9500      0.9000      0.0100           0
s131            B                  1500.0000      0.0000    219.1350    480.7628      1.0000      0.1555      0.9500      1.0000      0.9500      0.9000      0.0100           0
s131            B                  1500.0000      0.0000    219.1350    480.7628      1.0000      0.1667      0.9500      1.0000      0.9500      0.9000      0.0100           0
s621            B                  1500.0000      0.0000    253.5050    487.3851      1.0000      0.1730      0.9500      1.0000      0.9500      0.9000      0.0100           0
s116            B                  1500.0000      0.0000    242.0450    512.5704      1.0000      0.1825      0.9500      1.0000      0.9500      0.9000      0.0100           0
s484            B                  1500.0000      0.0000    224.2625    504.7028      1.0000      0.1858      0.9500      1.0000      0.9500      0.9000      0.0100           0
s236            B                  1500.0000      0.0000    245.5475    490.6274      1.0000      0.1553      0.9500      1.0000      0.9500      0.9000      0.0100           0
s140            B                  1500.0000      0.0000    242.2775    529.7300      1.0000      0.2659      0.9500      1.0000      0.9500      0.9000      0.0100           0
s840            A                  1500.0000      0.0000    751.5000   1271.0920      1.0000      0.5050      0.9500      1.0000      0.9500      0.9000      0.0100           0
s116            B                  1500.0000      0.0000    242.0450    512.5704      1.0000      0.1418      0.9500      1.0000      0.9500      0.9000      0.0100           0
s131            B                  1500.0000      0.0000    219.1350    480.7628      1.0000      0.3916      0.9500      1.0000      0.9500      0.9000      0.0100           0
s669            B                  1500.0000      0.0000    256.9775    516.2079      1.0000      0.5761      0.9500      1.0000      0.3000      0.9000      0.2000           0
s97             B                  1500.0000      0.0000    243.9575    528.0076      1.0000      0.2562      0.9500      1.0000      0.9500      0.9000      0.0100           0
s829            D                  1500.0000      0.0000    751.5000   1271.0920      1.0000      0.2519      0.9500      1.0000      0.3000      0.0500      0.2000           0
s679            B                  1500.0000      0.0000    254.4425    486.8175      1.0000      0.3478      0.9500      1.0000      0.9500      0.9000      0.0100           0
s9              D                  1500.0000      0.0000    795.0000   1237.3020      1.0000      0.1510      0.9500      1.0000      0.9500      0.0500      0.0100           0
s337            A                  1500.0000      0.0000    155.9975    583.1698      1.0000      0.1261      0.9500      1.0000      0.9500      0.9000      0.0100           0
s337            A                  1500.0000      0.0000    155.9975    583.1698      1.0000      0.1496      0.9500      1.0000      0.9500      0.9000      0.0100           0
s635            A                  1500.0000      0.0000    246.9100    471.3891      1.0000      0.0938      0.9500      1.0000      0.9500      0.9000      0.0100           0
s337            A                  1500.0000      0.0000    155.9975    583.1698      1.0000      0.1613      0.9500      1.0000      0.9500      0.9000      0.0100           0
s337            A                  1500.0000      0.0000    155.9975    583.1698      1.0000      0.1537      0.9500      1.0000      0.9500      0.9000      0.0100           0
s116            B                  1500.0000      0.0000    242.0450    512.5704      1.0000      0.2201      0.9500      1.0000      0.9500      0.9000      0.0100           0
s483            A                  1500.0000      0.0000    224.2625    504.7028      1.0000      0.6299      0.9500      1.0000      0.9500      0.9000      0.0100           0
s467            C                  1500.0000      0.0000    232.9500    525.2980      1.0000      0.4037      0.9500      1.0000      0.3000      0.5000      0.2000           0
s467            C                  1500.0000      0.0000    232.9500    525.2980      1.0000      0.6467      0.9500      1.0000      0.3000      0.5000      0.2000           0
s97             B                  1500.0000      0.0000    243.9575    528.0076      1.0000      0.2916      0.9500      1.0000      0.9500      0.9000      0.0100           0
s131            B                  1500.0000      0.0000    219.1350    480.7628      1.0000      0.1572      0.9500      1.0000      0.9500      0.9000      0.0100           0
s97             B                  1500.0000      0.0000    243.9575    528.0076      1.0000      0.2912      0.9500      1.0000      0.9500      0.9000      0.0100           0
s33             A                  1500.0000      0.0000    197.5975    578.0397      1.0000      0.1714      0.9500      1.0000      0.9500      0.9000      0.0100           0
s483            A                  1500.0000      0.0000    224.2625    504.7028      1.0000      0.7136      0.9500      1.0000      0.3000      0.9000      0.2000           0
s483            A                  1500.0000      0.0000    224.2625    504.7028      1.0000      0.4433      0.9500      1.0000      0.9500      0.9000      0.0100           0
s840            A                  1500.0000      0.0000    751.5000   1271.0920      1.0000      0.3602      0.9500      1.0000      0.9500      0.9000      0.0100           0
s346            A                  1500.0000      0.0000    162.8525    570.9705      1.0000      0.2043      0.9500      1.0000      0.9500      0.9000      0.0100           0
s346            A                  1500.0000      0.0000    162.8525    570.9705      1.0000      0.2247      0.9500      1.0000      0.9500      0.9000      0.0100           0
s840            A                  1500.0000      0.0000    751.5000   1271.0920      1.0000      0.4591      0.9500      1.0000      0.9500      0.9000      0.0100           0
s361            A                  1500.0000      0.0000    168.5900    590.4738      1.0000      0.1643      0.9500      1.0000      0.9500      0.9000      0.0100           0
s705            C                  1500.0000      0.0000    199.6200    307.8713      1.0000      0.1617      0.9500      1.0000      0.9500      0.5000      0.0100           0
s507            B                  1500.0000      0.0000    251.9150    524.7653      1.0000      0.1462      0.9500      1.0000      0.9500      0.9000      0.0100           0
s705            C                  1500.0000      0.0000    199.6200    307.8713      1.0000      0.1305      0.9500      1.0000      0.9500      0.5000      0.0100           0
s622            C                  1500.0000      0.0000    253.5050    487.3851      1.0000      0.1356      0.9500      1.0000      0.9500      0.5000      0.0100           0
s622            C                  1500.0000      0.0000    253.5050    487.3851      1.0000      0.1185      0.9500      1.0000      0.9500      0.5000      0.0100           0
s116            B                  1500.0000      0.0000    242.0450    512.5704      1.0000      0.1765      0.9500      1.0000      0.9500      0.9000      0.0100           0
s407            A                  1500.0000      0.0000    213.7375    617.8466      1.0000      0.1834      0.9500      1.0000      0.9500      0.9000      0.0100           0
s418            B                  1500.0000      0.0000    192.1400    583.1101      1.0000      0.1546      0.9500      1.0000      0.9500      0.9000      0.0100           0
s392            C                  1500.0000      0.0000    222.7950    482.0068      1.0000      0.9646      0.9500      1.0000      0.0000      0.5000      0.9000           0
s467            C                  1500.0000      0.0000    232.9500    525.2980      1.0000      0.3791      0.9500      1.0000      0.3000      0.5000      0.2000           0
s467            C                  1500.0000      0.0000    232.9500    525.2980      1.0000      0.2157      0.9500      1.0000      0.3000      0.5000      0.2000           0
s467            C                  1500.0000      0.0000    232.9500    525.2980      1.0000      0.3424      0.9500      1.0000      0.3000      0.5000      0.2000           0
s467            C                  1500.0000      0.0000    232.9500    525.2980      1.0000      0.3024      0.9500      1.0000      0.3000      0.5000      0.2000           0
s467            C                  1500.0000      0.0000    232.9500    525.2980      1.0000      0.7119      0.9500      1.0000      0.0000      0.5000      0.9000           0
s467            C                  1500.0000      0.0000    232.9500    525.2980      1.0000      0.3023      0.9500      1.0000      0.3000      0.5000      0.2000           0
s392            C                  1500.0000      0.0000    222.7950    482.0068      1.0000      0.7085      0.9500      1.0000      0.0000      0.5000      0.9000           0
s398            A                  1500.0000      0.0000    211.8650    461.0525      1.0000      2.1447      0.9500      1.0000      0.0000      0.9000      0.9000           0
s467            C                  1500.0000      0.0000    232.9500    525.2980      1.0000      0.4497      0.9500      1.0000      0.3000      0.5000      0.2000           0
s207            B                  1500.0000      0.0000    240.0200    521.1714      1.0000      0.4336      0.9500      1.0000      0.3000      0.9000      0.2000           0
s346            A                  1500.0000      0.0000    162.8525    570.9705      1.0000      0.1418      0.9500      1.0000      0.9500      0.9000      0.0100           0
s346            A                  1500.0000      0.0000    162.8525    570.9705      1.0000      0.1096      0.9500      1.0000      0.9500      0.9000      0.0100           0
s33             A                  1500.0000      0.0000    197.5975    578.0397      1.0000      0.1441      0.9500      1.0000      0.9500      0.9000      0.0100           0
s33             A                  1500.0000      0.0000    197.5975    578.0397      1.0000      0.1764      0.9500      1.0000      0.9500      0.9000      0.0100           0
s346            A                  1500.0000      0.0000    162.8525    570.9705      1.0000      0.1230      0.9500      1.0000      0.9500      0.9000      0.0100           0
s33             A                  1500.0000      0.0000    197.5975    578.0397      1.0000      0.1534      0.9500      1.0000      0.9500      0.9000      0.0100           0
s33             A                  1500.0000      0.0000    197.5975    578.0397      1.0000      0.1197      0.9500      1.0000      0.9500      0.9000      0.0100           0
s483            A                  1500.0000      0.0000    224.2625    504.7028      1.0000      0.4255      0.9500      1.0000      0.9500      0.9000      0.0100           0
s208            C                  1500.0000      0.0000    240.0200    521.1714      1.0000      0.1631      0.9500      1.0000      0.9500      0.5000      0.0100           0
s33             A                  1500.0000      0.0000    197.5975    578.0397      1.0000      0.2871      0.9500      1.0000      0.9500      0.9000      0.0100           0
s417            A                  1500.0000      0.0000    192.1400    583.1101      1.0000      0.4289      0.9500      1.0000      0.9500      0.9000      0.0100           0
s33             A                  1500.0000      0.0000    197.5975    578.0397      1.0000      0.1490      0.9500      1.0000      0.9500      0.9000      0.0100           0
s473            D                  1500.0000      0.0000    224.2625    504.7028      1.0000      0.3095      0.9500      1.0000      0.3000      0.0500      0.2000           0
s115            A                  1500.0000      0.0000    242.0450    512.5704      1.0000      0.3915      0.9500      1.0000      0.9500      0.9000      0.0100           0
s346            A                  1500.0000      0.0000    162.8525    570.9705      1.0000      0.1354      0.9500      1.0000      0.9500      0.9000      0.0100           0
s484            B                  1500.0000      0.0000    224.2625    504.7028      1.0000      0.1624      0.9500      1.0000      0.9500      0.9000      0.0100           0
s622            C                  1500.0000      0.0000    253.5050    487.3851      1.0000      0.2139      0.9500      1.0000      0.3000      0.5000      0.2000           0
s664            C                  1500.0000      0.0000    263.1050    556.3831      1.0000      0.1345      0.9500      1.0000      0.9500      0.5000      0.0100           0
s664            C                  1500.0000      0.0000    263.1050    556.3831      1.0000      0.3130      0.9500      1.0000      0.3000      0.5000      0.2000           0
s664            C                  1500.0000      0.0000    263.1050    556.3831      1.0000      0.2132      0.9500      1.0000      0.3000      0.5000      0.2000           0
s664            C                  1500.0000      0.0000    263.1050    556.3831      1.0000      0.9728      0.9500      1.0000      0.0000      0.5000      0.9000           0
s116            B                  1500.0000      0.0000    242.0450    512.5704      1.0000      0.1225      0.9500      1.0000      0.9500      0.9000      0.0100           0
s664            C                  1500.0000      0.0000    263.1050    556.3831      1.0000      0.1490      0.9500      1.0000      0.9500      0.5000      0.0100           0
s435            A                  1500.0000      0.0000    219.6200    571.5744      1.0000      0.4684      0.9500      1.0000      0.9500      0.9000      0.0100           0
s333            D                  1500.0000      0.0000    155.9975    583.1698      1.0000      0.4353      0.9500      1.0000      0.0000      0.0500      0.9000           0
s20             A                  1500.0000      0.0000    795.0000   1237.3020      1.0000      0.6445      0.9500      1.0000      0.9500      0.9000      0.0100           0
s586            B                  1500.0000      0.0000    255.9350    517.9653      1.0000      0.1600      0.9500      1.0000      0.9500      0.9000      0.0100           0
s586            B                  1500.0000      0.0000    255.9350    517.9653      1.0000      0.1605      0.9500      1.0000      0.9500      0.9000      0.0100           0
s207            B                  1500.0000      0.0000    240.0200    521.1714      1.0000      0.1691      0.9500      1.0000      0.9500      0.9000      0.0100           0
s43             B                  1500.0000      0.0000    231.8900    469.2791      1.0000      0.1440      0.9500      1.0000      0.9500      0.9000      0.0100           0
s195            B                  1500.0000      0.0000    240.0200    521.1714      1.0000      0.1618      0.9500      1.0000      0.9500      0.9000      0.0100           0
s207            B                  1500.0000      0.0000    240.0200    521.1714      1.0000      0.2526      0.9500      1.0000      0.9500      0.9000      0.0100           0
s385            A                  1500.0000      0.0000    200.7125    512.0665      1.0000      0.6322      0.9500      1.0000      0.9500      0.9000      0.0100           0
s337            A                  1500.0000      0.0000    155.9975    583.1698      1.0000      0.4346      0.9500      1.0000      0.9500      0.9000      0.0100           0
s207            B                  1500.0000      0.0000    240.0200    521.1714      1.0000      0.1404      0.9500      1.0000      0.9500      0.9000      0.0100           0
s207            B                  1500.0000      0.0000    240.0200    521.1714      1.0000      0.1561      0.9500      1.0000      0.9500      0.9000      0.0100           0
s43             B                  1500.0000      0.0000    231.8900    469.2791      1.0000      0.1913      0.9500      1.0000      0.9500      0.9000      0.0100           0
s43             B                  1500.0000      0.0000    231.8900    469.2791      1.0000      0.1593      0.9500      1.0000      0.9500      0.9000      0.0100           0
s43             B                  1500.0000      0.0000    231.8900    469.2791      1.0000      0.1549      0.9500      1.0000      0.9500      0.9000      0.0100           0
s586            B                  1500.0000      0.0000    255.9350    517.9653      1.0000      0.1717      0.9500      1.0000      0.9500      0.9000      0.0100           0
s586            B                  1500.0000      0.0000    255.9350    517.9653      1.0000      0.1708      0.9500      1.0000      0.9500      0.9000      0.0100           0
s621            B                  1500.0000      0.0000    253.5050    487.3851      1.0000      0.3130      0.9500      1.0000      0.9500      0.9000      0.0100           0
s754            C                  1500.0000      0.0000    250.3900    472.7796      1.0000      0.1190      0.9500      1.0000      0.9500      0.5000      0.0100           0
s754            C                  1500.0000      0.0000    250.3900    472.7796      1.0000      0.1294      0.9500      1.0000      0.9500      0.5000      0.0100           0
s754            C                  1500.0000      0.0000    250.3900    472.7796      1.0000      0.1744      0.9500      1.0000      0.9500      0.5000      0.0100           0
s754            C                  1500.0000      0.0000    250.3900    472.7796      1.0000      0.1451      0.9500      1.0000      0.9500      0.5000      0.0100           0
s600            C                  1500.0000      0.0000    250.5650    502.3697      1.0000      0.1355      0.9500      1.0000      0.9500      0.5000      0.0100           0
s754            C                  1500.0000      0.0000    250.3900    472.7796      1.0000      0.1553      0.9500      1.0000      0.9500      0.5000      0.0100           0
s754            C                  1500.0000      0.0000    250.3900    472.7796      1.0000      0.1719      0.9500      1.0000      0.9500      0.5000      0.0100           0
s754            C                  1500.0000      0.0000    250.3900    472.7796      1.0000      0.3193      0.9500      1.0000      0.3000      0.5000      0.2000           0
s754            C                  1500.0000      0.0000    250.3900    472.7796      1.0000      0.2119      0.9500      1.0000      0.3000      0.5000      0.2000           0
s622            C                  1500.0000      0.0000    253.5050    487.3851      1.0000      0.1834      0.9500      1.0000      0.9500      0.5000      0.0100           0
s543            B                  1500.0000      0.0000    246.6350    517.8624      1.0000      0.1430      0.9500      1.0000      0.9500      0.9000      0.0100           0
s754            C                  1500.0000      0.0000    250.3900    472.7796      1.0000      0.1903      0.9500      1.0000      0.9500      0.5000      0.0100           0
s483            A                  1500.0000      0.0000    224.2625    504.7028      1.0000      0.2451      0.9500      1.0000      0.9500      0.9000      0.0100           0
s483            A                  1500.0000      0.0000    224.2625    504.7028      1.0000      0.3655      0.9500      1.0000      0.9500      0.9000      0.0100           0
s483            A                  1500.0000      0.0000    224.2625    504.7028      1.0000      0.3666      0.9500      1.0000      0.9500      0.9000      0.0100           0
s417            A                  1500.0000      0.0000    192.1400    583.1101      1.0000      0.2574      0.9500      1.0000      0.9500      0.9000      0.0100           0
s483            A                  1500.0000      0.0000    224.2625    504.7028      1.0000      0.3136      0.9500      1.0000      0.9500      0.9000      0.0100           0
s337            A                  1500.0000      0.0000    155.9975    583.1698      1.0000      0.2333      0.9500      1.0000      0.9500      0.9000      0.0100           0
s483            A                  1500.0000      0.0000    224.2625    504.7028      1.0000      0.2547      0.9500      1.0000      0.9500      0.9000      0.0100           0
s354            A                  1500.0000      0.0000    168.5900    590.4738      1.0000      0.1974      0.9500      1.0000      0.9500      0.9000      0.0100           0
s337            A                  1500.0000      0.0000    155.9975    583.1698      1.0000      0.1874      0.9500      1.0000      0.9500      0.9000      0.0100           0
s207            B                  1500.0000      0.0000    240.0200    521.1714      1.0000      0.1849      0.9500      1.0000      0.9500      0.9000      0.0100           0
s207            B                  1500.0000      0.0000    240.0200    521.1714      1.0000      0.2486      0.9500      1.0000      0.9500      0.9000      0.0100           0
s810            C                  1500.0000      0.0000    223.2475    438.5552      1.0000      0.2389      0.9500      1.0000      0.3000      0.5000      0.2000           0
s78             B                  1500.0000      0.0000    216.5525    559.0461      1.0000      0.1679      0.9500      1.0000      0.9500      0.9000      0.0100           0
s587            C                  1500.0000      0.0000    255.9350    517.9653      1.0000      0.1349      0.9500      1.0000      0.9500      0.5000      0.0100           0
s587            C                  1500.0000      0.0000    255.9350    517.9653      1.0000      0.3905      0.9500      1.0000      0.3000      0.5000      0.2000           0
s810            C                  1500.0000      0.0000    223.2475    438.5552      1.0000      0.5595      0.9500      1.0000      0.3000      0.5000      0.2000           0
s78             B                  1500.0000      0.0000    216.5525    559.0461      1.0000      0.1144      0.9500      1.0000      0.9500      0.9000      0.0100           0
s361            A                  1500.0000      0.0000    168.5900    590.4738      1.0000      0.2269      0.9500      1.0000      0.9500      0.9000      0.0100           0
s599            B                  1500.0000      0.0000    250.5650    502.3697      1.0000      0.2901      0.9500      1.0000      0.9500      0.9000      0.0100           0
s599            B                  1500.0000      0.0000    250.5650    502.3697      1.0000      0.2474      0.9500      1.0000      0.9500      0.9000      0.0100           0
s252            B                  1500.0000      0.0000    255.6750    533.3730      1.0000      0.2195      0.9500      1.0000      0.9500      0.9000      0.0100           0
s754            C                  1500.0000      0.0000    250.3900    472.7796      1.0000      0.4339      0.9500      1.0000      0.3000      0.5000      0.2000           0
s754            C                  1500.0000      0.0000    250.3900    472.7796      1.0000      0.1275      0.9500      1.0000      0.9500      0.5000      0.0100           0
s754            C                  1500.0000      0.0000    250.3900    472.7796      1.0000      0.3716      0.9500      1.0000      0.3000      0.5000      0.2000           0
s754            C                  1500.0000      0.0000    250.3900    472.7796      1.0000      0.4836      0.9500      1.0000      0.3000      0.5000      0.2000           0
s337            A                  1500.0000      0.0000    155.9975    583.1698      1.0000      0.1596      0.9500      1.0000      0.9500      0.9000      0.0100           0
s337            A                  1500.0000      0.0000    155.9975    583.1698      1.0000      0.1706      0.9500      1.0000      0.9500      0.9000      0.0100           0
s435            A                  1500.0000      0.0000    219.6200    571.5744      1.0000      0.1790      0.9500      1.0000      0.9500      0.9000      0.0100           0
s669            B                  1500.0000      0.0000    256.9775    516.2079      1.0000      0.2961      0.9500      1.0000      0.9500      0.9000      0.0100           0
s669            B                  1500.0000      0.0000    256.9775    516.2079      1.0000      0.2176      0.9500      1.0000      0.9500      0.9000      0.0100           0
s669            B                  1500.0000      0.0000    256.9775    516.2079      1.0000      0.1112      0.9500      1.0000      0.9500      0.9000      0.0100           0
s669            B                  1500.0000      0.0000    256.9775    516.2079      1.0000      0.1877      0.9500      1.0000      0.9500      0.9000      0.0100           0
s669            B                  1500.0000      0.0000    256.9775    516.2079      1.0000      0.1172      0.9500      1.0000      0.9500      0.9000      0.0100           0
s669            B                  1500.0000      0.0000    256.9775    516.2079      1.0000      0.1148      0.9500      1.0000      0.9500      0.9000      0.0100           0
s669            B                  1500.0000      0.0000    256.9775    516.2079      1.0000      0.3441      0.9500      1.0000      0.9500      0.9000      0.0100           0
s669            B                  1500.0000      0.0000    256.9775    516.2079      1.0000      0.1312      0.9500      1.0000      0.9500      0.9000      0.0100           0
s669            B                  1500.0000      0.0000    256.9775    516.2079      1.0000      0.1435      0.9500      1.0000      0.9500      0.9000      0.0100           0
s669            B                  1500.0000      0.0000    256.9775    516.2079      1.0000      0.1400      0.9500      1.0000      0.9500      0.9000      0.0100           0
s669            B                  1500.0000      0.0000    256.9775    516.2079      1.0000      0.2145      0.9500      1.0000      0.9500      0.9000      0.0100           0
s669            B                  1500.0000      0.0000    256.9775    516.2079      1.0000      0.1137      0.9500      1.0000      0.9500      0.9000      0.0100           0
s669            B                  1500.0000      0.0000    256.9775    516.2079      1.0000      0.1045      0.9500      1.0000      0.9500      0.9000      0.0100           0
s753            B                  1500.0000      0.0000    250.3900    472.7796      1.0000      0.1319      0.9500      1.0000      0.9500      0.9000      0.0100           0
s77             A                  1500.0000      0.0000    216.5525    559.0461      1.0000      0.1845      0.9500      1.0000      0.9500      0.9000      0.0100           0
s754            C                  1500.0000      0.0000    250.3900    472.7796      1.0000      0.1987      0.9500      1.0000      0.9500      0.5000      0.0100           0
s754            C                  1500.0000      0.0000    250.3900    472.7796      1.0000      0.1418      0.9500      1.0000      0.9500      0.5000      0.0100           0
s417            A                  1500.0000      0.0000    192.1400    583.1101      1.0000      0.5061      0.9500      1.0000      0.9500      0.9000      0.0100           0
s417            A                  1500.0000      0.0000    192.1400    583.1101      1.0000      0.1758      0.9500      1.0000      0.9500      0.9000      0.0100           0
s754            C                  1500.0000      0.0000    250.3900    472.7796      1.0000      0.2241      0.9500      1.0000      0.3000      0.5000      0.2000           0
s754            C                  1500.0000      0.0000    250.3900    472.7796      1.0000      0.2233      0.9500      1.0000      0.3000      0.5000      0.2000           0
s483            A                  1500.0000      0.0000    224.2625    504.7028      1.0000      1.0616      0.9500      1.0000      0.3000      0.9000      0.2000           0
s417            A                  1500.0000      0.0000    192.1400    583.1101      1.0000      0.2383      0.9500      1.0000      0.9500      0.9000      0.0100           0
s483            A                  1500.0000      0.0000    224.2625    504.7028      1.0000      0.1944      0.9500      1.0000      0.9500      0.9000      0.0100           0
s754            C                  1500.0000      0.0000    250.3900    472.7796      1.0000      0.1704      0.9500      1.0000      0.9500      0.5000      0.0100           0
s483            A                  1500.0000      0.0000    224.2625    504.7028      1.0000      0.2971      0.9500      1.0000      0.9500      0.9000      0.0100           0
s361            A                  1500.0000      0.0000    168.5900    590.4738      1.0000      0.2591      0.9500      1.0000      0.9500      0.9000      0.0100           0
s483            A                  1500.0000      0.0000    224.2625    504.7028      1.0000      0.2438      0.9500      1.0000      0.9500      0.9000      0.0100           0
s69             A                  1500.0000      0.0000    243.7250    578.8932      1.0000      0.2225      0.9500      1.0000      0.9500      0.9000      0.0100           0
s69             A                  1500.0000      0.0000    243.7250    578.8932      1.0000      0.1308      0.9500      1.0000      0.9500      0.9000      0.0100           0
s658            C                  1500.0000      0.0000    240.8725    412.0407      1.0000      0.3196      0.9500      1.0000      0.3000      0.5000      0.2000           0
s599            B                  1500.0000      0.0000    250.5650    502.3697      1.0000      0.1529      0.9500      1.0000      0.9500      0.9000      0.0100           0
s599            B                  1500.0000      0.0000    250.5650    502.3697      1.0000      0.1458      0.9500      1.0000      0.9500      0.9000      0.0100           0
s621            B                  1500.0000      0.0000    253.5050    487.3851      1.0000      0.2360      0.9500      1.0000      0.9500      0.9000      0.0100           0
s621            B                  1500.0000      0.0000    253.5050    487.3851      1.0000      0.1717      0.9500      1.0000      0.9500      0.9000      0.0100           0
s621            B                  1500.0000      0.0000    253.5050    487.3851      1.0000      0.2104      0.9500      1.0000      0.9500      0.9000      0.0100           0
s622            C                  1500.0000      0.0000    253.5050    487.3851      1.0000      0.2233      0.9500      1.0000      0.3000      0.5000      0.2000           0
s622            C                  1500.0000      0.0000    253.5050    487.3851      1.0000      0.1719      0.9500      1.0000      0.9500      0.5000      0.0100           0
s622            C                  1500.0000      0.0000    253.5050    487.3851      1.0000      0.3966      0.9500      1.0000      0.3000      0.5000      0.2000           0
s622            C                  1500.0000      0.0000    253.5050    487.3851      1.0000      0.1369      0.9500      1.0000      0.9500      0.5000      0.0100           0
s818            D                  1500.0000      0.0000    435.7505    936.7098      1.0000      0.4275      0.9500      1.0000      0.0000      0.0500      0.9000           0
s829            D                  1500.0000      0.0000    751.5000   1271.0920      1.0000      0.2067      0.9500      1.0000      0.3000      0.0500      0.2000           0
s435            A                  1500.0000      0.0000    219.6200    571.5744      1.0000      0.2426      0.9500      1.0000      0.9500      0.9000      0.0100           0
s435            A                  1500.0000      0.0000    219.6200    571.5744      1.0000      0.3007      0.9500      1.0000      0.9500      0.9000      0.0100           0
s435            A                  1500.0000      0.0000    219.6200    571.5744      1.0000      0.3214      0.9500      1.0000      0.9500      0.9000      0.0100           0
s840            A                  1500.0000      0.0000    751.5000   1271.0920      1.0000      0.4749      0.9500      1.0000      0.9500      0.9000      0.0100           0
s373            D                  1500.0000      0.0000    210.3625    733.4052      1.0000      0.4780      0.9500      1.0000      0.0000      0.0500      0.9000           0
s435            A                  1500.0000      0.0000    219.6200    571.5744      1.0000      0.2961      0.9500      1.0000      0.9500      0.9000      0.0100           0
s829            D                  1500.0000      0.0000    751.5000   1271.0920      1.0000      0.2133      0.9500      1.0000      0.3000      0.0500      0.2000           0
s333            D                  1500.0000      0.0000    155.9975    583.1698      1.0000      0.2176      0.9500      1.0000      0.3000      0.0500      0.2000           0
s435            A                  1500.0000      0.0000    219.6200    571.5744      1.0000      0.2415      0.9500      1.0000      0.9500      0.9000      0.0100           0
s386            B                  1500.0000      0.0000    200.7125    512.0665      1.0000      0.1253      0.9500      1.0000      0.9500      0.9000      0.0100           0
s337            A                  1500.0000      0.0000    155.9975    583.1698      1.0000      0.1598      0.9500      1.0000      0.9500      0.9000      0.0100           0
s483            A                  1500.0000      0.0000    224.2625    504.7028      1.0000      0.3865      0.9500      1.0000      0.9500      0.9000      0.0100           0
s621            B                  1500.0000      0.0000    253.5050    487.3851      1.0000      0.2822      0.9500      1.0000      0.9500      0.9000      0.0100           0
s97             B                  1500.0000      0.0000    243.9575    528.0076      1.0000      0.1859      0.9500      1.0000      0.9500      0.9000      0.0100           0
s207            B                  1500.0000      0.0000    240.0200    521.1714      1.0000      0.2758      0.9500      1.0000      0.9500      0.9000      0.0100           0
s97             B                  1500.0000      0.0000    243.9575    528.0076      1.0000      0.2137      0.9500      1.0000      0.9500      0.9000      0.0100           0
s483            A                  1500.0000      0.0000    224.2625    504.7028      1.0000      0.1628      0.9500      1.0000      0.9500      0.9000      0.0100           0
s190            B                  1500.0000      0.0000    222.8075    567.3368      1.0000      0.2181      0.9500      1.0000      0.9500      0.9000      0.0100           0
s829            D                  1500.0000      0.0000    751.5000   1271.0920      1.0000      0.2512      0.9500      1.0000      0.3000      0.0500      0.2000           0
s116            B                  1500.0000      0.0000    242.0450    512.5704      1.0000      0.4510      0.9500      1.0000      0.3000      0.9000      0.2000           0
s483            A                  1500.0000      0.0000    224.2625    504.7028      1.0000      0.5990      0.9500      1.0000      0.9500      0.9000      0.0100           0
s417            A                  1500.0000      0.0000    192.1400    583.1101      1.0000      0.2556      0.9500      1.0000      0.9500      0.9000      0.0100           0
s435            A                  1500.0000      0.0000    219.6200    571.5744      1.0000      0.2003      0.9500      1.0000      0.9500      0.9000      0.0100           0
s549            B                  1500.0000      0.0000    244.9700    474.9337      1.0000      0.1583      0.9500      1.0000      0.9500      0.9000      0.0100           0
s549            B                  1500.0000      0.0000    244.9700    474.9337      1.0000      0.1739      0.9500      1.0000      0.9500      0.9000      0.0100           0
s549            B                  1500.0000      0.0000    244.9700    474.9337      1.0000      0.2472      0.9500      1.0000      0.9500      0.9000      0.0100           0
s483            A                  1500.0000      0.0000    224.2625    504.7028      1.0000      0.3500      0.9500      1.0000      0.9500      0.9000      0.0100           0
s275            B                  1500.0000      0.0000    381.3200    593.5062      1.0000      0.2058      0.9500      1.0000      0.9500      0.9000      0.0100           0
s754            C                  1500.0000      0.0000    250.3900    472.7796      1.0000      0.2586      0.9500      1.0000      0.3000      0.5000      0.2000           0
s840            A                  1500.0000      0.0000    751.5000   1271.0920      1.0000      0.2935      0.9500      1.0000      0.9500      0.9000      0.0100           0
s33             A                  1500.0000      0.0000    197.5975    578.0397      1.0000      0.1376      0.9500      1.0000      0.9500      0.9000      0.0100           0
s34             A                  1500.0000      0.0000    197.5975    578.0397      1.0000      0.1510      0.9500      1.0000      0.9500      0.9000      0.0100           0
s739            C                  1500.0000      0.0000    251.4900    482.7104      1.0000      0.1477      0.9500      1.0000      0.9500      0.5000      0.0100           0
s622            C                  1500.0000      0.0000    253.5050    487.3851      1.0000      0.1618      0.9500      1.0000      0.9500      0.5000      0.0100           0
s739            C                  1500.0000      0.0000    251.4900    482.7104      1.0000      0.1609      0.9500      1.0000      0.9500      0.5000      0.0100           0
s622            C                  1500.0000      0.0000    253.5050    487.3851      1.0000      0.1433      0.9500      1.0000      0.9500      0.5000      0.0100           0
s252            B                  1500.0000      0.0000    255.6750    533.3730      1.0000      0.2044      0.9500      1.0000      0.9500      0.9000      0.0100           0
s252            B                  1500.0000      0.0000    255.6750    533.3730      1.0000      0.2793      0.9500      1.0000      0.9500      0.9000      0.0100           0
s739            C                  1500.0000      0.0000    251.4900    482.7104      1.0000      0.1488      0.9500      1.0000      0.9500      0.5000      0.0100           0
s622            C                  1500.0000      0.0000    253.5050    487.3851      1.0000      0.2372      0.9500      1.0000      0.3000      0.5000      0.2000           0
s648            C                  1500.0000      0.0000    226.0150    442.6909      1.0000      0.1200      0.9500      1.0000      0.9500      0.5000      0.0100           0
s483            A                  1500.0000      0.0000    224.2625    504.7028      1.0000      0.2373      0.9500      1.0000      0.9500      0.9000      0.0100           0
s586            B                  1500.0000      0.0000    255.9350    517.9653      1.0000      0.9347      0.9500      1.0000      0.0000      0.5000      0.9000           0
s586            B                  1500.0000      0.0000    255.9350    517.9653      1.0000      0.4850      0.9500      1.0000      0.3000      0.9000      0.2000           0
s586            B                  1500.0000      0.0000    255.9350    517.9653      1.0000      0.2097      0.9500      1.0000      0.9500      0.9000      0.0100           0
s483            A                  1500.0000      0.0000    224.2625    504.7028      1.0000      0.1449      0.9500      1.0000      0.9500      0.9000      0.0100           0
s599            B                  1500.0000      0.0000    250.5650    502.3697      1.0000      0.1606      0.9500      1.0000      0.9500      0.9000      0.0100           0
s361            A                  1500.0000      0.0000    168.5900    590.4738      1.0000      0.2442      0.9500      1.0000      0.9500      0.9000      0.0100           0
s361            A                  1500.0000      0.0000    168.5900    590.4738      1.0000      0.2945      0.9500      1.0000      0.9500      0.9000      0.0100           0
s418            B                  1500.0000      0.0000    192.1400    583.1101      1.0000      0.1863      0.9500      1.0000      0.9500      0.9000      0.0100           0
s549            B                  1500.0000      0.0000    244.9700    474.9337      1.0000      0.1380      0.9500      1.0000      0.9500      0.9000      0.0100           0
s622            C                  1500.0000      0.0000    253.5050    487.3851      1.0000      0.1646      0.9500      1.0000      0.9500      0.5000      0.0100           0
s696            C                  1500.0000      0.0000    251.6875    490.4275      1.0000      0.3525      0.9500      1.0000      0.3000      0.5000      0.2000           0
s208            C                  1500.0000      0.0000    240.0200    521.1714      1.0000      0.1497      0.9500      1.0000      0.9500      0.5000      0.0100           0
s622            C                  1500.0000      0.0000    253.5050    487.3851      1.0000      0.1585      0.9500      1.0000      0.9500      0.5000      0.0100           0
s592            D                  1500.0000      0.0000    250.5650    502.3697      1.0000      0.2090      0.9500      1.0000      0.3000      0.0500      0.2000           0
s599            B                  1500.0000      0.0000    250.5650    502.3697      1.0000      0.5480      0.9500      1.0000      0.3000      0.9000      0.2000           0
s599            B                  1500.0000      0.0000    250.5650    502.3697      1.0000      0.2463      0.9500      1.0000      0.9500      0.9000      0.0100           0
s754            C                  1500.0000      0.0000    250.3900    472.7796      1.0000      0.2218      0.9500      1.0000      0.3000      0.5000      0.2000           0
s599            B                  1500.0000      0.0000    250.5650    502.3697      1.0000      0.8819      0.9500      1.0000      0.0000      0.5000      0.9000           0
s754            C                  1500.0000      0.0000    250.3900    472.7796      1.0000      0.1844      0.9500      1.0000      0.9500      0.5000      0.0100           0
s599            B                  1500.0000      0.0000    250.5650    502.3697      1.0000      0.7006      0.9500      1.0000      0.0000      0.5000      0.9000           0
s598            C                  1500.0000      0.0000    250.5650    502.3697      1.0000      0.1662      0.9500      1.0000      0.9500      0.5000      0.0100           0
s717            B                  1500.0000      0.0000    236.8200    398.0028      1.0000      0.2945      0.9500      1.0000      0.9500      0.9000      0.0100           0
s267            C                  1500.0000      0.0000    338.8400    674.1901      1.0000      0.3184      0.9500      1.0000      0.3000      0.5000      0.2000           0
s715            C                  1500.0000      0.0000    236.8200    398.0028      1.0000      0.3244      0.9500      1.0000      0.3000      0.5000      0.2000           0
s599            B                  1500.0000      0.0000    250.5650    502.3697      1.0000      0.2739      0.9500      1.0000      0.9500      0.9000      0.0100           0
s717            B                  1500.0000      0.0000    236.8200    398.0028      1.0000      0.4596      0.9500      1.0000      0.3000      0.9000      0.2000           0
s717            B                  1500.0000      0.0000    236.8200    398.0028      1.0000      0.4523      0.9500      1.0000      0.3000      0.9000      0.2000           0
s739            C                  1500.0000      0.0000    251.4900    482.7104      1.0000      0.1789      0.9500      1.0000      0.9500      0.5000      0.0100           0
s622            C                  1500.0000      0.0000    253.5050    487.3851      1.0000      0.3531      0.9500      1.0000      0.3000      0.5000      0.2000           0
s739            C                  1500.0000      0.0000    251.4900    482.7104      1.0000      0.3600      0.9500      1.0000      0.3000      0.5000      0.2000           0
s98             C                  1500.0000      0.0000    243.9575    528.0076      1.0000      0.1322      0.9500      1.0000      0.9500      0.5000      0.0100           0
s98             C                  1500.0000      0.0000    243.9575    528.0076      1.0000      0.1347      0.9500      1.0000      0.9500      0.5000      0.0100           0
s98             C                  1500.0000      0.0000    243.9575    528.0076      1.0000      0.1143      0.9500      1.0000      0.9500      0.5000      0.0100           0
s116            B                  1500.0000      0.0000    242.0450    512.5704      1.0000      0.1105      0.9500      1.0000      0.9500      0.9000      0.0100           0
s116            B                  1500.0000      0.0000    242.0450    512.5704      1.0000      0.1045      0.9500      1.0000      0.9500      0.9000      0.0100           0
s98             C                  1500.0000      0.0000    243.9575    528.0076      1.0000      0.1287      0.9500      1.0000      0.9500      0.5000      0.0100           0
s435            A                  1500.0000      0.0000    219.6200    571.5744      1.0000      0.4109      0.9500      1.0000      0.9500      0.9000      0.0100           0
s435            A                  1500.0000      0.0000    219.6200    571.5744      1.0000      0.2804      0.9500      1.0000      0.9500      0.9000      0.0100           0
s435            A                  1500.0000      0.0000    219.6200    571.5744      1.0000      0.3255      0.9500      1.0000      0.9500      0.9000      0.0100           0
s483            A                  1500.0000      0.0000    224.2625    504.7028      1.0000      0.2257      0.9500      1.0000      0.9500      0.9000      0.0100           0
s418            B                  1500.0000      0.0000    192.1400    583.1101      1.0000      0.1480      0.9500      1.0000      0.9500      0.9000      0.0100           0
s418            B                  1500.0000      0.0000    192.1400    583.1101      1.0000      0.2364      0.9500      1.0000      0.9500      0.9000      0.0100           0
s361            A                  1500.0000      0.0000    168.5900    590.4738      1.0000      0.3622      0.9500      1.0000      0.9500      0.9000      0.0100           0
s435            A                  1500.0000      0.0000    219.6200    571.5744      1.0000      0.2943      0.9500      1.0000      0.9500      0.9000      0.0100           0
s288            A                  1500.0000      0.0000    231.8925    710.1927      1.0000      0.9965      0.9500      1.0000      0.3000      0.9000      0.2000           0
s337            A                  1500.0000      0.0000    155.9975    583.1698      1.0000      0.3461      0.9500      1.0000      0.9500      0.9000      0.0100           0
s377            A                  1500.0000      0.0000    210.3625    733.4052      1.0000      0.3062      0.9500      1.0000      0.9500      0.9000      0.0100           0
s435            A                  1500.0000      0.0000    219.6200    571.5744      1.0000      0.4416      0.9500      1.0000      0.9500      0.9000      0.0100           0
s435            A                  1500.0000      0.0000    219.6200    571.5744      1.0000      0.2252      0.9500      1.0000      0.9500      0.9000      0.0100           0
s435            A                  1500.0000      0.0000    219.6200    571.5744      1.0000      0.2205      0.9500      1.0000      0.9500      0.9000      0.0100           0
s642            A                  1500.0000      0.0000    230.3550    454.5236      1.0000      0.3290      0.9500      1.0000      0.9500      0.9000      0.0100           0
s483            A                  1500.0000      0.0000    224.2625    504.7028      1.0000      0.7118      0.9500      1.0000      0.3000      0.9000      0.2000           0
s337            A                  1500.0000      0.0000    155.9975    583.1698      1.0000      0.4602      0.9500      1.0000      0.9500      0.9000      0.0100           0
s417            A                  1500.0000      0.0000    192.1400    583.1101      1.0000      0.4498      0.9500      1.0000      0.9500      0.9000      0.0100           0
s337            A                  1500.0000      0.0000    155.9975    583.1698      1.0000      0.2038      0.9500      1.0000      0.9500      0.9000      0.0100           0
s354            A                  1500.0000      0.0000    168.5900    590.4738      1.0000      0.5717      0.9500      1.0000      0.9500      0.9000      0.0100           0
s332            A                  1500.0000      0.0000    155.9975    583.1698      1.0000      0.4473      0.9500      1.0000      0.9500      0.9000      0.0100           0
s286            A                  1500.0000      0.0000    231.8925    710.1927      1.0000      0.3540      0.9500      1.0000      0.9500      0.9000      0.0100           0
s430            A                  1500.0000      0.0000    219.6200    571.5744      1.0000      0.6705      0.9500      1.0000      0.9500      0.9000      0.0100           0
s418            B                  1500.0000      0.0000    192.1400    583.1101      1.0000      0.2052      0.9500      1.0000      0.9500      0.9000      0.0100           0
s361            A                  1500.0000      0.0000    168.5900    590.4738      1.0000      0.2349      0.9500      1.0000      0.9500      0.9000      0.0100           0
s337            A                  1500.0000      0.0000    155.9975    583.1698      1.0000      0.4285      0.9500      1.0000      0.9500      0.9000      0.0100           0
s435            A                  1500.0000      0.0000    219.6200    571.5744      1.0000      0.2060      0.9500      1.0000      0.9500      0.9000      0.0100           0
s435            A                  1500.0000      0.0000    219.6200    571.5744      1.0000      0.1934      0.9500      1.0000      0.9500      0.9000      0.0100           0
s622            C                  1500.0000      0.0000    253.5050    487.3851      1.0000      0.2537      0.9500      1.0000      0.3000      0.5000      0.2000           0
s600            C                  1500.0000      0.0000    250.5650    502.3697      1.0000      0.2427      0.9500      1.0000      0.3000      0.5000      0.2000           0
s85             B                  1500.0000      0.0000    243.9575    528.0076      1.0000      0.4414      0.9500      1.0000      0.3000      0.9000      0.2000           0
s97             B                  1500.0000      0.0000    243.9575    528.0076      1.0000      0.1944      0.9500      1.0000      0.9500      0.9000      0.0100           0
s207            B                  1500.0000      0.0000    240.0200    521.1714      1.0000      0.2111      0.9500      1.0000      0.9500      0.9000      0.0100           0
s121            D                  1500.0000      0.0000    221.1950    492.1745      1.0000      0.3140      0.9500      1.0000      0.3000      0.0500      0.2000           0
s679            B                  1500.0000      0.0000    254.4425    486.8175      1.0000      0.4262      0.9500      1.0000      0.3000      0.9000      0.2000           0
s131            B                  1500.0000      0.0000    219.1350    480.7628      1.0000      0.1545      0.9500      1.0000      0.9500      0.9000      0.0100           0
s267            C                  1500.0000      0.0000    338.8400    674.1901      1.0000      0.6302      0.9500      1.0000      0.3000      0.5000      0.2000           0
s98             C                  1500.0000      0.0000    243.9575    528.0076      1.0000      0.3339      0.9500      1.0000      0.3000      0.5000      0.2000           0
s98             C                  1500.0000      0.0000    243.9575    528.0076      1.0000      0.3246      0.9500      1.0000      0.3000      0.5000      0.2000           0
s267            C                  1500.0000      0.0000    338.8400    674.1901      1.0000      0.5242      0.9500      1.0000      0.3000      0.5000      0.2000           0
s599            B                  1500.0000      0.0000    250.5650    502.3697      1.0000      0.3425      0.9500      1.0000      0.9500      0.9000      0.0100           0
s718            C                  1500.0000      0.0000    236.8200    398.0028      1.0000      0.4183      0.9500      1.0000      0.3000      0.5000      0.2000           0
s337            A                  1500.0000      0.0000    155.9975    583.1698      1.0000      0.1310      0.9500      1.0000      0.9500      0.9000      0.0100           0
s337            A                  1500.0000      0.0000    155.9975    583.1698      1.0000      0.1840      0.9500      1.0000      0.9500      0.9000      0.0100           0
s586            B                  1500.0000      0.0000    255.9350    517.9653      1.0000      0.7021      0.9500      1.0000      0.0000      0.5000      0.9000           0
s116            B                  1500.0000      0.0000    242.0450    512.5704      1.0000      0.6855      0.9500      1.0000      0.0000      0.5000      0.9000           0
s417            A                  1500.0000      0.0000    192.1400    583.1101      1.0000      0.1110      0.9500      1.0000      0.9500      0.9000      0.0100           0
s337            A                  1500.0000      0.0000    155.9975    583.1698      1.0000      0.4786      0.9500      1.0000      0.9500      0.9000      0.0100           0
s337            A                  1500.0000      0.0000    155.9975    583.1698      1.0000      0.4245      0.9500      1.0000      0.9500      0.9000      0.0100           0
s43             B                  1500.0000      0.0000    231.8900    469.2791      1.0000      0.1369      0.9500      1.0000      0.9500      0.9000      0.0100           0
s385            A                  1500.0000      0.0000    200.7125    512.0665      1.0000      0.1868      0.9500      1.0000      0.9500      0.9000      0.0100           0
s385            A                  1500.0000      0.0000    200.7125    512.0665      1.0000      0.2581      0.9500      1.0000      0.9500      0.9000      0.0100           0
s20             A                  1500.0000      0.0000    795.0000   1237.3020      1.0000      0.2555      0.9500      1.0000      0.9500      0.9000      0.0100           0
s621            B                  1500.0000      0.0000    253.5050    487.3851      1.0000      0.3939      0.9500      1.0000      0.9500      0.9000      0.0100           0
s621            B                  1500.0000      0.0000    253.5050    487.3851      1.0000      0.3208      0.9500      1.0000      0.9500      0.9000      0.0100           0
s621            B                  1500.0000      0.0000    253.5050    487.3851      1.0000      0.2922      0.9500      1.0000      0.9500      0.9000      0.0100           0
s116            B                  1500.0000      0.0000    242.0450    512.5704      1.0000      0.1489      0.9500      1.0000      0.9500      0.9000      0.0100           0
s621            B                  1500.0000      0.0000    253.5050    487.3851      1.0000      0.4106      0.9500      1.0000      0.3000      0.9000      0.2000           0
s417            A                  1500.0000      0.0000    192.1400    583.1101      1.0000      0.6539      0.9500      1.0000      0.9500      0.9000      0.0100           0
s197            D                  1500.0000      0.0000    240.0200    521.1714      1.0000      0.5906      0.9500      1.0000      0.0000      0.0500      0.9000           0
s507            B                  1500.0000      0.0000    251.9150    524.7653      1.0000      0.2213      0.9500      1.0000      0.9500      0.9000      0.0100           0
s586            B                  1500.0000      0.0000    255.9350    517.9653      1.0000      0.2205      0.9500      1.0000      0.9500      0.9000      0.0100           0
s586            B                  1500.0000      0.0000    255.9350    517.9653      1.0000      0.2341      0.9500      1.0000      0.9500      0.9000      0.0100           0
s586            B                  1500.0000      0.0000    255.9350    517.9653      1.0000      0.2134      0.9500      1.0000      0.9500      0.9000      0.0100           0
s98             C                  1500.0000      0.0000    243.9575    528.0076      1.0000      0.4401      0.9500      1.0000      0.3000      0.5000      0.2000           0
s291            D                  1500.0000      0.0000    247.8700    780.1487      1.0000      0.2398      0.9500      1.0000      0.3000      0.0500      0.2000           0
s98             C                  1500.0000      0.0000    243.9575    528.0076      1.0000      0.1903      0.9500      1.0000      0.9500      0.5000      0.0100           0
s467            C                  1500.0000      0.0000    232.9500    525.2980      1.0000      0.3591      0.9500      1.0000      0.3000      0.5000      0.2000           0
s467            C                  1500.0000      0.0000    232.9500    525.2980      1.0000      0.1389      0.9500      1.0000      0.9500      0.5000      0.0100           0
s483            A                  1500.0000      0.0000    224.2625    504.7028      1.0000      0.2797      0.9500      1.0000      0.9500      0.9000      0.0100           0
s20             A                  1500.0000      0.0000    795.0000   1237.3020      1.0000      0.6544      0.9500      1.0000      0.9500      0.9000      0.0100           0
s98             C                  1500.0000      0.0000    243.9575    528.0076      1.0000      0.5909      0.9500      1.0000      0.3000      0.5000      0.2000           0
s467            C                  1500.0000      0.0000    232.9500    525.2980      1.0000      0.2831      0.9500      1.0000      0.3000      0.5000      0.2000           0
s408            A                  1500.0000      0.0000    192.1400    583.1101      1.0000      0.7948      0.9500      1.0000      0.3000      0.9000      0.2000           0
s467            C                  1500.0000      0.0000    232.9500    525.2980      1.0000      0.2833      0.9500      1.0000      0.3000      0.5000      0.2000           0
s419            C                  1500.0000      0.0000    192.1400    583.1101      1.0000      0.2840      0.9500      1.0000      0.3000      0.5000      0.2000           0
s467            C                  1500.0000      0.0000    232.9500    525.2980      1.0000      0.2666      0.9500      1.0000      0.3000      0.5000      0.2000           0
s98             C                  1500.0000      0.0000    243.9575    528.0076      1.0000      0.2510      0.9500      1.0000      0.3000      0.5000      0.2000           0
s467            C                  1500.0000      0.0000    232.9500    525.2980      1.0000      0.3956      0.9500      1.0000      0.3000      0.5000      0.2000           0
s467            C                  1500.0000      0.0000    232.9500    525.2980      1.0000      0.2681      0.9500      1.0000      0.3000      0.5000      0.2000           0
s467            C                  1500.0000      0.0000    232.9500    525.2980      1.0000      0.1700      0.9500      1.0000      0.9500      0.5000      0.0100           0
s361            A                  1500.0000      0.0000    168.5900    590.4738      1.0000      0.6981      0.9500      1.0000      0.3000      0.9000      0.2000           0
s361            A                  1500.0000      0.0000    168.5900    590.4738      1.0000      0.3214      0.9500      1.0000      0.9500      0.9000      0.0100           0
s361            A                  1500.0000      0.0000    168.5900    590.4738      1.0000      0.5257      0.9500      1.0000      0.9500      0.9000      0.0100           0
s97             B                  1500.0000      0.0000    243.9575    528.0076      1.0000      0.4978      0.9500      1.0000      0.3000      0.9000      0.2000           0
s97             B                  1500.0000      0.0000    243.9575    528.0076      1.0000      0.8491      0.9500      1.0000      0.0000      0.5000      0.9000           0
s156            A                  1500.0000      0.0000    171.7775    586.2361      1.0000      0.4791      0.9500      1.0000      0.9500      0.9000      0.0100           0
s97             B                  1500.0000      0.0000    243.9575    528.0076      1.0000      0.3879      0.9500      1.0000      0.9500      0.9000      0.0100           0
s483            A                  1500.0000      0.0000    224.2625    504.7028      1.0000      1.0947      0.9500      1.0000      0.3000      0.9000      0.2000           0
s840            A                  1500.0000      0.0000    751.5000   1271.0920      1.0000      0.4121      0.9500      1.0000      0.9500      0.9000      0.0100           0
s97             B                  1500.0000      0.0000    243.9575    528.0076      1.0000      0.3405      0.9500      1.0000      0.9500      0.9000      0.0100           0
s105            D                  1500.0000      0.0000    242.0450    512.5704      1.0000      0.2328      0.9500      1.0000      0.3000      0.0500      0.2000           0
s829            D                  1500.0000      0.0000    751.5000   1271.0920      1.0000      0.1780      0.9500      1.0000      0.9500      0.0500      0.0100           0
s105            D                  1500.0000      0.0000    242.0450    512.5704      1.0000      0.1933      0.9500      1.0000      0.9500      0.0500      0.0100           0
s840            A                  1500.0000      0.0000    751.5000   1271.0920      1.0000      0.6245      0.9500      1.0000      0.9500      0.9000      0.0100           0
s156            A                  1500.0000      0.0000    171.7775    586.2361      1.0000      0.5933      0.9500      1.0000      0.9500      0.9000      0.0100           0
s483            A                  1500.0000      0.0000    224.2625    504.7028      1.0000      0.6786      0.9500      1.0000      0.3000      0.9000      0.2000           0
s97             B                  1500.0000      0.0000    243.9575    528.0076      1.0000      0.3655      0.9500      1.0000      0.9500      0.9000      0.0100           0
s156            A                  1500.0000      0.0000    171.7775    586.2361      1.0000      0.4831      0.9500      1.0000      0.9500      0.9000      0.0100           0
s392            C                  1500.0000      0.0000    222.7950    482.0068      1.0000      0.5827      0.9500      1.0000      0.3000      0.5000      0.2000           0
s816            A                  1500.0000      0.0000    262.3710    837.3000      1.0000      0.8616      0.9500      1.0000      0.3000      0.9000      0.2000           0
s417            A                  1500.0000      0.0000    192.1400    583.1101      1.0000      1.8402      0.9500      1.0000      0.3000      0.9000      0.2000           0
s337            A                  1500.0000      0.0000    155.9975    583.1698      1.0000      0.2146      0.9500      1.0000      0.9500      0.9000      0.0100           0
s483            A                  1500.0000      0.0000    224.2625    504.7028      1.0000      0.2243      0.9500      1.0000      0.9500      0.9000      0.0100           0
[...]
s734            C                  1500.0000      0.0000    232.3350    413.2061      1.0000      0.4339      0.9500      1.0000      0.3000      0.5000      0.2000           0
s734            C                  1500.0000      0.0000    232.3350    413.2061      1.0000      0.3651      0.9500      1.0000      0.3000      0.5000      0.2000           0
s734            C                  1500.0000      0.0000    232.3350    413.2061      1.0000      0.1825      0.9500      1.0000      0.9500      0.5000      0.0100           0
s756            C                  1500.0000      0.0000    250.3900    472.7796      1.0000      0.4426      0.9500      1.0000      0.3000      0.5000      0.2000           0
s756            C                  1500.0000      0.0000    250.3900    472.7796      1.0000      0.2216      0.9500      1.0000      0.3000      0.5000      0.2000           0
s625            C                  1500.0000      0.0000    253.5050    487.3851      1.0000      0.3737      0.9500      1.0000      0.3000      0.5000      0.2000           0
s279            D                  1500.0000      0.0000    381.3200    593.5062      1.0000      0.1813      0.9500      1.0000      0.9500      0.1000      0.0100           1
s279            D                  1500.0000      0.0000    381.3200    593.5062      1.0000      0.7520      0.9500      1.0000      0.9500      0.1000      0.0100           1
s120            C                  1500.0000      0.0000    242.0450    512.5704      1.0000      0.8398      0.9500      1.0000      0.0000      0.5000      0.9000           0
s625            C                  1500.0000      0.0000    253.5050    487.3851      1.0000      0.4071      0.9500      1.0000      0.3000      0.5000      0.2000           0
s625            C                  1500.0000      0.0000    253.5050    487.3851      1.0000      0.5379      0.9500      1.0000      0.3000      0.5000      0.2000           0
s625            C                  1500.0000      0.0000    253.5050    487.3851      1.0000      0.2989      0.9500      1.0000      0.3000      0.5000      0.2000           0
s420            A                  1500.0000      0.0000    192.1400    583.1101      1.0000      0.2704      0.9500      1.0000      0.9500      0.9000      0.0100           0
s782            C                  1500.0000      0.0000    226.2525    381.9851      1.0000      0.5178      0.9500      1.0000      0.3000      0.5000      0.2000           0
s827            A                  1500.0000      0.0000    751.5000   1271.0920      1.0000      0.4350      0.9500      1.0000      0.9500      0.9000      0.0100           0
s827            A                  1500.0000      0.0000    751.5000   1271.0920      1.0000      0.6623      0.9500      1.0000      0.9500      0.9000      0.0100           0
s279            D                  1500.0000      0.0000    381.3200    593.5062      1.0000      0.1443      0.9500      1.0000      0.9500      0.1000      0.0100           1
s832            A                  1500.0000      0.0000    751.5000   1271.0920      1.0000      0.1858      0.9500      1.0000      0.9500      0.9000      0.0100           0
s641            C                  1500.0000      0.0000    246.9100    471.3891      1.0000      0.3009      0.9500      1.0000      0.3000      0.5000      0.2000           0
s279            D                  1500.0000      0.0000    381.3200    593.5062      1.0000      0.1559      0.9500      1.0000      0.9500      0.1000      0.0100           1
s279            D                  1500.0000      0.0000    381.3200    593.5062      1.0000      0.1516      0.9500      1.0000      0.9500      0.1000      0.0100           1
s641            C                  1500.0000      0.0000    246.9100    471.3891      1.0000      0.5474      0.9500      1.0000      0.3000      0.5000      0.2000           0
s641            C                  1500.0000      0.0000    246.9100    471.3891      1.0000      0.7380      0.9500      1.0000      0.0000      0.5000      0.9000           0
s641            C                  1500.0000      0.0000    246.9100    471.3891      1.0000      0.9207      0.9500      1.0000      0.0000      0.5000      0.9000           0
s602            C                  1500.0000      0.0000    250.5650    502.3697      1.0000      0.8702      0.9500      1.0000      0.0000      0.5000      0.9000           0
s589            B                  1500.0000      0.0000    255.9350    517.9653      1.0000      0.5841      0.9500      1.0000      0.3000      0.9000      0.2000           0
s832            A                  1500.0000      0.0000    751.5000   1271.0920      1.0000      0.7758      0.9500      1.0000      0.3000      0.9000      0.2000           0
s720            C                  1500.0000      0.0000    236.8200    398.0028      1.0000      0.4935      0.9500      1.0000      0.3000      0.5000      0.2000           0
s279            D                  1500.0000      0.0000    381.3200    593.5062      1.0000      0.3110      0.9500      1.0000      0.9500      0.1000      0.0100           1
s279            D                  1500.0000      0.0000    381.3200    593.5062      1.0000      0.6356      0.9500      1.0000      0.9500      0.1000      0.0100           1
s832            A                  1500.0000      0.0000    751.5000   1271.0920      1.0000      0.1274      0.9500      1.0000      0.9500      0.9000      0.0100           0
s832            A                  1500.0000      0.0000    751.5000   1271.0920      1.0000      0.2059      0.9500      1.0000      0.9500      0.9000      0.0100           0
s279            D                  1500.0000      0.0000    381.3200    593.5062      1.0000      0.1215      0.9500      1.0000      0.9500      0.1000      0.0100           1
s671            B                  1500.0000      0.0000    256.9775    516.2079      1.0000      0.9058      0.9500      1.0000      0.0000      0.5000      0.9000           0
s671            B                  1500.0000      0.0000    256.9775    516.2079      1.0000      0.4233      0.9500      1.0000      0.3000      0.9000      0.2000           0
s279            D                  1500.0000      0.0000    381.3200    593.5062      1.0000      0.1487      0.9500      1.0000      0.9500      0.1000      0.0100           1
s279            D                  1500.0000      0.0000    381.3200    593.5062      1.0000      0.1549      0.9500      1.0000      0.9500      0.1000      0.0100           1
s279            D                  1500.0000      0.0000    381.3200    593.5062      1.0000      0.1356      0.9500      1.0000      0.9500      0.1000      0.0100           1
s610            B                  1500.0000      0.0000    298.6650    626.4161      1.0000      0.3344      0.9500      1.0000      0.9500      0.9000      0.0100           0
s279            D                  1500.0000      0.0000    381.3200    593.5062      1.0000      0.1737      0.9500      1.0000      0.9500      0.1000      0.0100           1
s835            D                  1500.0000      0.0000    751.5000   1271.0920      1.0000      3.2425      0.9500      1.0000      0.0000      0.0500      0.9000           0
s279            D                  1500.0000      0.0000    381.3200    593.5062      1.0000      0.1889      0.9500      1.0000      0.9500      0.1000      0.0100           1
s279            D                  1500.0000      0.0000    381.3200    593.5062      1.0000      0.1217      0.9500      1.0000      0.9500      0.1000      0.0100           1
s279            D                  1500.0000      0.0000    381.3200    593.5062      1.0000      0.4543      0.9500      1.0000      0.9500      0.1000      0.0100           1
s279            D                  1500.0000      0.0000    381.3200    593.5062      1.0000      0.3005      0.9500      1.0000      0.9500      0.1000      0.0100           1
s756            C                  1500.0000      0.0000    250.3900    472.7796      1.0000      0.3062      0.9500      1.0000      0.3000      0.5000      0.2000           0
s276            D                  1500.0000      0.0000    381.3200    593.5062      1.0000      1.6247      0.9500      1.0000      0.9500      0.1000      0.0100           1
s279            D                  1500.0000      0.0000    381.3200    593.5062      1.0000      0.1707      0.9500      1.0000      0.9500      0.1000      0.0100           1
s279            D                  1500.0000      0.0000    381.3200    593.5062      1.0000      0.1835      0.9500      1.0000      0.9500      0.1000      0.0100           1
s279            D                  1500.0000      0.0000    381.3200    593.5062      1.0000      0.1903      0.9500      1.0000      0.9500      0.1000      0.0100           1
s544            B                  1500.0000      0.0000    246.6350    517.8624      1.0000      0.2278      0.9500      1.0000      0.9500      0.9000      0.0100           0
s544            B                  1500.0000      0.0000    246.6350    517.8624      1.0000      0.2986      0.9500      1.0000      0.9500      0.9000      0.0100           0
s756            C                  1500.0000      0.0000    250.3900    472.7796      1.0000      0.2756      0.9500      1.0000      0.3000      0.5000      0.2000           0
s756            C                  1500.0000      0.0000    250.3900    472.7796      1.0000      0.2900      0.9500      1.0000      0.3000      0.5000      0.2000           0
s610            B                  1500.0000      0.0000    298.6650    626.4161      1.0000      1.2964      0.9500      1.0000      0.0000      0.5000      0.9000           0
s611            B                  1500.0000      0.0000    298.6650    626.4161      1.0000      0.1856      0.9500      1.0000      0.9500      0.9000      0.0100           0
s785            C                  1500.0000      0.0000    243.3625    442.6013      1.0000      0.7402      0.9500      1.0000      0.0000      0.5000      0.9000           0
s785            C                  1500.0000      0.0000    243.3625    442.6013      1.0000      0.4802      0.9500      1.0000      0.3000      0.5000      0.2000           0
s785            C                  1500.0000      0.0000    243.3625    442.6013      1.0000      0.5405      0.9500      1.0000      0.3000      0.5000      0.2000           0
s785            C                  1500.0000      0.0000    243.3625    442.6013      1.0000      0.4079      0.9500      1.0000      0.3000      0.5000      0.2000           0
s756            C                  1500.0000      0.0000    250.3900    472.7796      1.0000      0.6575      0.9500      1.0000      0.3000      0.5000      0.2000           0
s551            B                  1500.0000      0.0000    244.9700    474.9337      1.0000      0.2178      0.9500      1.0000      0.9500      0.9000      0.0100           0
s546            B                  1500.0000      0.0000    244.9700    474.9337      1.0000      0.2803      0.9500      1.0000      0.9500      0.9000      0.0100           0
s279            D                  1500.0000      0.0000    381.3200    593.5062      1.0000      0.1390      0.9500      1.0000      0.9500      0.1000      0.0100           1
s281            D                  1500.0000      0.0000    381.3200    593.5062      1.0000      0.2135      0.9500      1.0000      0.9500      0.1000      0.0100           1
s279            D                  1500.0000      0.0000    381.3200    593.5062      1.0000      0.1462      0.9500      1.0000      0.9500      0.1000      0.0100           1
s832            A                  1500.0000      0.0000    751.5000   1271.0920      1.0000      0.1475      0.9500      1.0000      0.9500      0.9000      0.0100           0
s832            A                  1500.0000      0.0000    751.5000   1271.0920      1.0000      0.5155      0.9500      1.0000      0.9500      0.9000      0.0100           0
s832            A                  1500.0000      0.0000    751.5000   1271.0920      1.0000      0.3290      0.9500      1.0000      0.9500      0.9000      0.0100           0
s835            D                  1500.0000      0.0000    751.5000   1271.0920      1.0000      2.0879      0.9500      1.0000      0.0000      0.0500      0.9000           0
s832            A                  1500.0000      0.0000    751.5000   1271.0920      1.0000      1.2512      0.9500      1.0000      0.3000      0.9000      0.2000           0
s832            A                  1500.0000      0.0000    751.5000   1271.0920      1.0000      1.2378      0.9500      1.0000      0.3000      0.9000      0.2000           0
s835            D                  1500.0000      0.0000    751.5000   1271.0920      1.0000      0.1004      0.9500      1.0000      0.9500      0.0500      0.0100           0
s97             B                  1500.0000      0.0000    243.9575    528.0076      1.0000      0.3969      0.9500      1.0000      0.9500      0.9000      0.0100           0
s483            A                  1500.0000      0.0000    224.2625    504.7028      1.0000      0.2731      0.9500      1.0000      0.9500      0.9000      0.0100           0
s682            C                  1500.0000      0.0000    254.4425    486.8175      1.0000      0.1546      0.9500      1.0000      0.9500      0.1000      0.0100           1
s279            D                  1500.0000      0.0000    381.3200    593.5062      1.0000      0.2473      0.9500      1.0000      0.9500      0.1000      0.0100           1
s468            A                  1500.0000      0.0000    232.9500    525.2980      1.0000      0.3535      0.9500      1.0000      0.9500      0.1000      0.0100           1
s660            C                  1500.0000      0.0000    241.2075    457.2938      1.0000      0.1053      0.9500      1.0000      0.9500      0.1000      0.0100           1
s551            B                  1500.0000      0.0000    244.9700    474.9337      1.0000      0.1558      0.9500      1.0000      0.9500      0.1000      0.0100           1
s589            B                  1500.0000      0.0000    255.9350    517.9653      1.0000      0.1397      0.9500      1.0000      0.9500      0.1000      0.0100           1
s832            A                  1500.0000      0.0000    751.5000   1271.0920      1.0000      0.1431      0.9500      1.0000      0.9500      0.9000      0.0100           0
s833            B                  1500.0000      0.0000    751.5000   1271.0920      1.0000      0.7585      0.9500      1.0000      0.0000      0.5000      0.9000           0
s281            D                  1500.0000      0.0000    381.3200    593.5062      1.0000      0.1447      0.9500      1.0000      0.9500      0.1000      0.0100           1
s13             A                  1500.0000      0.0000    795.0000   1237.3020      1.0000      0.0992      0.9500      1.0000      0.9500      0.9000      0.0100           0
s16             D                  1500.0000      0.0000    795.0000   1237.3020      1.0000      0.1641      0.9500      1.0000      0.9500      0.0500      0.0100           0
s832            A                  1500.0000      0.0000    751.5000   1271.0920      1.0000      0.1337      0.9500      1.0000      0.9500      0.9000      0.0100           0
s832            A                  1500.0000      0.0000    751.5000   1271.0920      1.0000      0.6031      0.9500      1.0000      0.9500      0.9000      0.0100           0
s435            A                  1500.0000      0.0000    219.6200    571.5744      1.0000      0.7935      0.9500      1.0000      0.3000      0.9000      0.2000           0
s827            A                  1500.0000      0.0000    751.5000   1271.0920      1.0000      0.4225      0.9500      1.0000      0.9500      0.9000      0.0100           0
s835            D                  1500.0000      0.0000    751.5000   1271.0920      1.0000      0.2713      0.9500      1.0000      0.3000      0.0500      0.2000           0
s832            A                  1500.0000      0.0000    751.5000   1271.0920      1.0000      0.3702      0.9500      1.0000      0.9500      0.9000      0.0100           0
s832            A                  1500.0000      0.0000    751.5000   1271.0920      1.0000      0.5700      0.9500      1.0000      0.9500      0.9000      0.0100           0
s835            D                  1500.0000      0.0000    751.5000   1271.0920      1.0000      0.1765      0.9500      1.0000      0.9500      0.0500      0.0100           0
s832            A                  1500.0000      0.0000    751.5000   1271.0920      1.0000      0.1824      0.9500      1.0000      0.9500      0.9000      0.0100           0
s832            A                  1500.0000      0.0000    751.5000   1271.0920      1.0000      0.1499      0.9500      1.0000      0.9500      0.9000      0.0100           0
s832            A                  1500.0000      0.0000    751.5000   1271.0920      1.0000      0.1660      0.9500      1.0000      0.9500      0.9000      0.0100           0
s832            A                  1500.0000      0.0000    751.5000   1271.0920      1.0000      0.1505      0.9500      1.0000      0.9500      0.9000      0.0100           0
s832            A                  1500.0000      0.0000    751.5000   1271.0920      1.0000      0.1376      0.9500      1.0000      0.9500      0.9000      0.0100           0
s832            A                  1500.0000      0.0000    751.5000   1271.0920      1.0000      0.1126      0.9500      1.0000      0.9500      0.9000      0.0100           0
s832            A                  1500.0000      0.0000    751.5000   1271.0920      1.0000      0.1735      0.9500      1.0000      0.9500      0.9000      0.0100           0
s832            A                  1500.0000      0.0000    751.5000   1271.0920      1.0000      0.1453      0.9500      1.0000      0.9500      0.9000      0.0100           0
s832            A                  1500.0000      0.0000    751.5000   1271.0920      1.0000      0.1663      0.9500      1.0000      0.9500      0.9000      0.0100           0
s835            D                  1500.0000      0.0000    751.5000   1271.0920      1.0000      0.1609      0.9500      1.0000      0.9500      0.0500      0.0100           0
s469            B                  1500.0000      0.0000    232.9500    525.2980      1.0000      0.3205      0.9500      1.0000      0.9500      0.1000      0.0100           1
s466            B                  1500.0000      0.0000    232.9500    525.2980      1.0000      0.6694      0.9500      1.0000      0.3000      0.9000      0.2000           0
s834            C                  1500.0000      0.0000    751.5000   1271.0920      1.0000      0.3758      0.9500      1.0000      0.3000      0.5000      0.2000           0
s832            A                  1500.0000      0.0000    751.5000   1271.0920      1.0000      0.1577      0.9500      1.0000      0.9500      0.9000      0.0100           0
s835            D                  1500.0000      0.0000    751.5000   1271.0920      1.0000      0.1453      0.9500      1.0000      0.9500      0.0500      0.0100           0
s835            D                  1500.0000      0.0000    751.5000   1271.0920      1.0000      0.3796      0.9500      1.0000      0.3000      0.0500      0.2000           0
s281            D                  1500.0000      0.0000    381.3200    593.5062      1.0000      0.2658      0.9500      1.0000      0.9500      0.1000      0.0100           1
s281            D                  1500.0000      0.0000    381.3200    593.5062      1.0000      0.3050      0.9500      1.0000      0.9500      0.1000      0.0100           1
