                   SWAT+               
             Revision 61.0            
      Soil & Water Assessment Tool    
               PC Version             
    Program reading . . . executing


  Date of Sim  11/ 5/2024 Time  14:15:40
 reading from precipitation file         Time  14:15:40
 reading from temperature file           Time  14:15:40
 reading from solar radiation file       Time  14:15:41
 reading from relative humidity file     Time  14:15:42
 reading from wind file                  Time  14:15:43
 reading from wgn file                   Time  14:15:43
 reading from wx station file            Time  14:15:44
  Original Simulation        1   1  2003 Yr    1 of   20 Time  14:16: 4
  Original Simulation        1   2  2003 Yr    1 of   20 Time  14:16: 5
  Original Simulation        1   3  2003 Yr    1 of   20 Time  14:16: 5
  Original Simulation        1   4  2003 Yr    1 of   20 Time  14:16: 6
  Original Simulation        1   5  2003 Yr    1 of   20 Time  14:16: 6
  Original Simulation        1   6  2003 Yr    1 of   20 Time  14:16: 6
  Original Simulation        1   7  2003 Yr    1 of   20 Time  14:16: 7
  Original Simulation        1   8  2003 Yr    1 of   20 Time  14:16: 7
  Original Simulation        1   9  2003 Yr    1 of   20 Time  14:16: 8
  Original Simulation        1  10  2003 Yr    1 of   20 Time  14:16: 8
  Original Simulation        1  11  2003 Yr    1 of   20 Time  14:16: 9
  Original Simulation        1  12  2003 Yr    1 of   20 Time  14:16: 9
  Original Simulation        1  13  2003 Yr    1 of   20 Time  14:16:10
  Original Simulation        1  14  2003 Yr    1 of   20 Time  14:16:10
  Original Simulation        1  15  2003 Yr    1 of   20 Time  14:16:10
  Original Simulation        1  16  2003 Yr    1 of   20 Time  14:16:11
  Original Simulation        1  17  2003 Yr    1 of   20 Time  14:16:11
  Original Simulation        1  18  2003 Yr    1 of   20 Time  14:16:12
  Original Simulation        1  19  2003 Yr    1 of   20 Time  14:16:12
  Original Simulation        1  20  2003 Yr    1 of   20 Time  14:16:12
  Original Simulation        1  21  2003 Yr    1 of   20 Time  14:16:13
  Original Simulation        1  22  2003 Yr    1 of   20 Time  14:16:13
  Original Simulation        1  23  2003 Yr    1 of   20 Time  14:16:14
  Original Simulation        1  24  2003 Yr    1 of   20 Time  14:16:14
  Original Simulation        1  25  2003 Yr    1 of   20 Time  14:16:15
  Original Simulation        1  26  2003 Yr    1 of   20 Time  14:16:15
  Original Simulation        1  27  2003 Yr    1 of   20 Time  14:16:16
  Original Simulation        1  28  2003 Yr    1 of   20 Time  14:16:16
  Original Simulation        1  29  2003 Yr    1 of   20 Time  14:16:17
  Original Simulation        1  30  2003 Yr    1 of   20 Time  14:16:17
  Original Simulation        1  31  2003 Yr    1 of   20 Time  14:16:18
  Original Simulation        2   1  2003 Yr    1 of   20 Time  14:16:18
  Original Simulation        2   2  2003 Yr    1 of   20 Time  14:16:18
  Original Simulation        2   3  2003 Yr    1 of   20 Time  14:16:19
  Original Simulation        2   4  2003 Yr    1 of   20 Time  14:16:19
  Original Simulation        2   5  2003 Yr    1 of   20 Time  14:16:20
  Original Simulation        2   6  2003 Yr    1 of   20 Time  14:16:20
  Original Simulation        2   7  2003 Yr    1 of   20 Time  14:16:21
  Original Simulation        2   8  2003 Yr    1 of   20 Time  14:16:21
  Original Simulation        2   9  2003 Yr    1 of   20 Time  14:16:22
  Original Simulation        2  10  2003 Yr    1 of   20 Time  14:16:22
  Original Simulation        2  11  2003 Yr    1 of   20 Time  14:16:23
  Original Simulation        2  12  2003 Yr    1 of   20 Time  14:16:23
  Original Simulation        2  13  2003 Yr    1 of   20 Time  14:16:24
  Original Simulation        2  14  2003 Yr    1 of   20 Time  14:16:24
  Original Simulation        2  15  2003 Yr    1 of   20 Time  14:16:25
  Original Simulation        2  16  2003 Yr    1 of   20 Time  14:16:25
  Original Simulation        2  17  2003 Yr    1 of   20 Time  14:16:26
  Original Simulation        2  18  2003 Yr    1 of   20 Time  14:16:26
  Original Simulation        2  19  2003 Yr    1 of   20 Time  14:16:27
  Original Simulation        2  20  2003 Yr    1 of   20 Time  14:16:27
  Original Simulation        2  21  2003 Yr    1 of   20 Time  14:16:27
  Original Simulation        2  22  2003 Yr    1 of   20 Time  14:16:28
  Original Simulation        2  23  2003 Yr    1 of   20 Time  14:16:28
  Original Simulation        2  24  2003 Yr    1 of   20 Time  14:16:29
  Original Simulation        2  25  2003 Yr    1 of   20 Time  14:16:29
  Original Simulation        2  26  2003 Yr    1 of   20 Time  14:16:30
  Original Simulation        2  27  2003 Yr    1 of   20 Time  14:16:30
  Original Simulation        2  28  2003 Yr    1 of   20 Time  14:16:31
  Original Simulation        3   1  2003 Yr    1 of   20 Time  14:16:31
  Original Simulation        3   2  2003 Yr    1 of   20 Time  14:16:32
  Original Simulation        3   3  2003 Yr    1 of   20 Time  14:16:32
  Original Simulation        3   4  2003 Yr    1 of   20 Time  14:16:33
  Original Simulation        3   5  2003 Yr    1 of   20 Time  14:16:33
  Original Simulation        3   6  2003 Yr    1 of   20 Time  14:16:34
  Original Simulation        3   7  2003 Yr    1 of   20 Time  14:16:34
  Original Simulation        3   8  2003 Yr    1 of   20 Time  14:16:35
  Original Simulation        3   9  2003 Yr    1 of   20 Time  14:16:35
  Original Simulation        3  10  2003 Yr    1 of   20 Time  14:16:36
  Original Simulation        3  11  2003 Yr    1 of   20 Time  14:16:36
  Original Simulation        3  12  2003 Yr    1 of   20 Time  14:16:37
  Original Simulation        3  13  2003 Yr    1 of   20 Time  14:16:37
  Original Simulation        3  14  2003 Yr    1 of   20 Time  14:16:38
  Original Simulation        3  15  2003 Yr    1 of   20 Time  14:16:38
  Original Simulation        3  16  2003 Yr    1 of   20 Time  14:16:39
  Original Simulation        3  17  2003 Yr    1 of   20 Time  14:16:39
  Original Simulation        3  18  2003 Yr    1 of   20 Time  14:16:40
  Original Simulation        3  19  2003 Yr    1 of   20 Time  14:16:40
  Original Simulation        3  20  2003 Yr    1 of   20 Time  14:16:41
  Original Simulation        3  21  2003 Yr    1 of   20 Time  14:16:41
  Original Simulation        3  22  2003 Yr    1 of   20 Time  14:16:41
  Original Simulation        3  23  2003 Yr    1 of   20 Time  14:16:42
  Original Simulation        3  24  2003 Yr    1 of   20 Time  14:16:42
  Original Simulation        3  25  2003 Yr    1 of   20 Time  14:16:43
  Original Simulation        3  26  2003 Yr    1 of   20 Time  14:16:43
  Original Simulation        3  27  2003 Yr    1 of   20 Time  14:16:44
  Original Simulation        3  28  2003 Yr    1 of   20 Time  14:16:44
  Original Simulation        3  29  2003 Yr    1 of   20 Time  14:16:44
  Original Simulation        3  30  2003 Yr    1 of   20 Time  14:16:45
  Original Simulation        3  31  2003 Yr    1 of   20 Time  14:16:45
  Original Simulation        4   1  2003 Yr    1 of   20 Time  14:16:46
  Original Simulation        4   2  2003 Yr    1 of   20 Time  14:16:46
  Original Simulation        4   3  2003 Yr    1 of   20 Time  14:16:47
  Original Simulation        4   4  2003 Yr    1 of   20 Time  14:16:47
  Original Simulation        4   5  2003 Yr    1 of   20 Time  14:16:48
  Original Simulation        4   6  2003 Yr    1 of   20 Time  14:16:48
  Original Simulation        4   7  2003 Yr    1 of   20 Time  14:16:49
  Original Simulation        4   8  2003 Yr    1 of   20 Time  14:16:49
  Original Simulation        4   9  2003 Yr    1 of   20 Time  14:16:50
  Original Simulation        4  10  2003 Yr    1 of   20 Time  14:16:50
  Original Simulation        4  11  2003 Yr    1 of   20 Time  14:16:51
  Original Simulation        4  12  2003 Yr    1 of   20 Time  14:16:51
  Original Simulation        4  13  2003 Yr    1 of   20 Time  14:16:52
  Original Simulation        4  14  2003 Yr    1 of   20 Time  14:16:52
  Original Simulation        4  15  2003 Yr    1 of   20 Time  14:16:53
  Original Simulation        4  16  2003 Yr    1 of   20 Time  14:16:53
  Original Simulation        4  17  2003 Yr    1 of   20 Time  14:16:54
  Original Simulation        4  18  2003 Yr    1 of   20 Time  14:16:54
  Original Simulation        4  19  2003 Yr    1 of   20 Time  14:16:55
  Original Simulation        4  20  2003 Yr    1 of   20 Time  14:16:55
  Original Simulation        4  21  2003 Yr    1 of   20 Time  14:16:56
  Original Simulation        4  22  2003 Yr    1 of   20 Time  14:16:56
  Original Simulation        4  23  2003 Yr    1 of   20 Time  14:16:57
  Original Simulation        4  24  2003 Yr    1 of   20 Time  14:16:57
  Original Simulation        4  25  2003 Yr    1 of   20 Time  14:16:58
  Original Simulation        4  26  2003 Yr    1 of   20 Time  14:16:58
  Original Simulation        4  27  2003 Yr    1 of   20 Time  14:16:59
  Original Simulation        4  28  2003 Yr    1 of   20 Time  14:16:59
  Original Simulation        4  29  2003 Yr    1 of   20 Time  14:17: 0
  Original Simulation        4  30  2003 Yr    1 of   20 Time  14:17: 0
  Original Simulation        5   1  2003 Yr    1 of   20 Time  14:17: 1
  Original Simulation        5   2  2003 Yr    1 of   20 Time  14:17: 1
  Original Simulation        5   3  2003 Yr    1 of   20 Time  14:17: 2
  Original Simulation        5   4  2003 Yr    1 of   20 Time  14:17: 2
  Original Simulation        5   5  2003 Yr    1 of   20 Time  14:17: 3
  Original Simulation        5   6  2003 Yr    1 of   20 Time  14:17: 3
  Original Simulation        5   7  2003 Yr    1 of   20 Time  14:17: 4
  Original Simulation        5   8  2003 Yr    1 of   20 Time  14:17: 4
  Original Simulation        5   9  2003 Yr    1 of   20 Time  14:17: 5
  Original Simulation        5  10  2003 Yr    1 of   20 Time  14:17: 5
  Original Simulation        5  11  2003 Yr    1 of   20 Time  14:17: 5
  Original Simulation        5  12  2003 Yr    1 of   20 Time  14:17: 6
  Original Simulation        5  13  2003 Yr    1 of   20 Time  14:17: 6
  Original Simulation        5  14  2003 Yr    1 of   20 Time  14:17: 7
  Original Simulation        5  15  2003 Yr    1 of   20 Time  14:17: 7
  Original Simulation        5  16  2003 Yr    1 of   20 Time  14:17: 8
  Original Simulation        5  17  2003 Yr    1 of   20 Time  14:17: 8
  Original Simulation        5  18  2003 Yr    1 of   20 Time  14:17: 9
  Original Simulation        5  19  2003 Yr    1 of   20 Time  14:17: 9
  Original Simulation        5  20  2003 Yr    1 of   20 Time  14:17:10
  Original Simulation        5  21  2003 Yr    1 of   20 Time  14:17:10
  Original Simulation        5  22  2003 Yr    1 of   20 Time  14:17:11
  Original Simulation        5  23  2003 Yr    1 of   20 Time  14:17:11
  Original Simulation        5  24  2003 Yr    1 of   20 Time  14:17:12
  Original Simulation        5  25  2003 Yr    1 of   20 Time  14:17:12
  Original Simulation        5  26  2003 Yr    1 of   20 Time  14:17:13
  Original Simulation        5  27  2003 Yr    1 of   20 Time  14:17:13
  Original Simulation        5  28  2003 Yr    1 of   20 Time  14:17:14
  Original Simulation        5  29  2003 Yr    1 of   20 Time  14:17:14
  Original Simulation        5  30  2003 Yr    1 of   20 Time  14:17:15
  Original Simulation        5  31  2003 Yr    1 of   20 Time  14:17:15
  Original Simulation        6   1  2003 Yr    1 of   20 Time  14:17:16
  Original Simulation        6   2  2003 Yr    1 of   20 Time  14:17:16
  Original Simulation        6   3  2003 Yr    1 of   20 Time  14:17:17
  Original Simulation        6   4  2003 Yr    1 of   20 Time  14:17:17
  Original Simulation        6   5  2003 Yr    1 of   20 Time  14:17:17
  Original Simulation        6   6  2003 Yr    1 of   20 Time  14:17:18
  Original Simulation        6   7  2003 Yr    1 of   20 Time  14:17:18
  Original Simulation        6   8  2003 Yr    1 of   20 Time  14:17:19
  Original Simulation        6   9  2003 Yr    1 of   20 Time  14:17:19
  Original Simulation        6  10  2003 Yr    1 of   20 Time  14:17:20
  Original Simulation        6  11  2003 Yr    1 of   20 Time  14:17:20
  Original Simulation        6  12  2003 Yr    1 of   20 Time  14:17:20
  Original Simulation        6  13  2003 Yr    1 of   20 Time  14:17:21
  Original Simulation        6  14  2003 Yr    1 of   20 Time  14:17:21
  Original Simulation        6  15  2003 Yr    1 of   20 Time  14:17:22
  Original Simulation        6  16  2003 Yr    1 of   20 Time  14:17:22
  Original Simulation        6  17  2003 Yr    1 of   20 Time  14:17:23
  Original Simulation        6  18  2003 Yr    1 of   20 Time  14:17:23
  Original Simulation        6  19  2003 Yr    1 of   20 Time  14:17:24
  Original Simulation        6  20  2003 Yr    1 of   20 Time  14:17:25
  Original Simulation        6  21  2003 Yr    1 of   20 Time  14:17:25
  Original Simulation        6  22  2003 Yr    1 of   20 Time  14:17:26
  Original Simulation        6  23  2003 Yr    1 of   20 Time  14:17:26
  Original Simulation        6  24  2003 Yr    1 of   20 Time  14:17:27
  Original Simulation        6  25  2003 Yr    1 of   20 Time  14:17:27
  Original Simulation        6  26  2003 Yr    1 of   20 Time  14:17:28
  Original Simulation        6  27  2003 Yr    1 of   20 Time  14:17:28
  Original Simulation        6  28  2003 Yr    1 of   20 Time  14:17:29
  Original Simulation        6  29  2003 Yr    1 of   20 Time  14:17:29
  Original Simulation        6  30  2003 Yr    1 of   20 Time  14:17:30
  Original Simulation        7   1  2003 Yr    1 of   20 Time  14:17:30
  Original Simulation        7   2  2003 Yr    1 of   20 Time  14:17:31
  Original Simulation        7   3  2003 Yr    1 of   20 Time  14:17:31
  Original Simulation        7   4  2003 Yr    1 of   20 Time  14:17:31
  Original Simulation        7   5  2003 Yr    1 of   20 Time  14:17:32
  Original Simulation        7   6  2003 Yr    1 of   20 Time  14:17:32
  Original Simulation        7   7  2003 Yr    1 of   20 Time  14:17:33
  Original Simulation        7   8  2003 Yr    1 of   20 Time  14:17:33
  Original Simulation        7   9  2003 Yr    1 of   20 Time  14:17:34
  Original Simulation        7  10  2003 Yr    1 of   20 Time  14:17:34
  Original Simulation        7  11  2003 Yr    1 of   20 Time  14:17:35
  Original Simulation        7  12  2003 Yr    1 of   20 Time  14:17:35
  Original Simulation        7  13  2003 Yr    1 of   20 Time  14:17:36
  Original Simulation        7  14  2003 Yr    1 of   20 Time  14:17:36
  Original Simulation        7  15  2003 Yr    1 of   20 Time  14:17:36
  Original Simulation        7  16  2003 Yr    1 of   20 Time  14:17:37
  Original Simulation        7  17  2003 Yr    1 of   20 Time  14:17:37
  Original Simulation        7  18  2003 Yr    1 of   20 Time  14:17:38
  Original Simulation        7  19  2003 Yr    1 of   20 Time  14:17:38
  Original Simulation        7  20  2003 Yr    1 of   20 Time  14:17:39
  Original Simulation        7  21  2003 Yr    1 of   20 Time  14:17:39
  Original Simulation        7  22  2003 Yr    1 of   20 Time  14:17:40
  Original Simulation        7  23  2003 Yr    1 of   20 Time  14:17:40
  Original Simulation        7  24  2003 Yr    1 of   20 Time  14:17:41
  Original Simulation        7  25  2003 Yr    1 of   20 Time  14:17:41
  Original Simulation        7  26  2003 Yr    1 of   20 Time  14:17:42
  Original Simulation        7  27  2003 Yr    1 of   20 Time  14:17:42
  Original Simulation        7  28  2003 Yr    1 of   20 Time  14:17:43
  Original Simulation        7  29  2003 Yr    1 of   20 Time  14:17:43
  Original Simulation        7  30  2003 Yr    1 of   20 Time  14:17:44
  Original Simulation        7  31  2003 Yr    1 of   20 Time  14:17:44
  Original Simulation        8   1  2003 Yr    1 of   20 Time  14:17:45
  Original Simulation        8   2  2003 Yr    1 of   20 Time  14:17:45
  Original Simulation        8   3  2003 Yr    1 of   20 Time  14:17:45
  Original Simulation        8   4  2003 Yr    1 of   20 Time  14:17:46
  Original Simulation        8   5  2003 Yr    1 of   20 Time  14:17:46
  Original Simulation        8   6  2003 Yr    1 of   20 Time  14:17:47
  Original Simulation        8   7  2003 Yr    1 of   20 Time  14:17:47
  Original Simulation        8   8  2003 Yr    1 of   20 Time  14:17:48
  Original Simulation        8   9  2003 Yr    1 of   20 Time  14:17:48
  Original Simulation        8  10  2003 Yr    1 of   20 Time  14:17:49
  Original Simulation        8  11  2003 Yr    1 of   20 Time  14:17:49
  Original Simulation        8  12  2003 Yr    1 of   20 Time  14:17:50
  Original Simulation        8  13  2003 Yr    1 of   20 Time  14:17:50
  Original Simulation        8  14  2003 Yr    1 of   20 Time  14:17:51
  Original Simulation        8  15  2003 Yr    1 of   20 Time  14:17:51
  Original Simulation        8  16  2003 Yr    1 of   20 Time  14:17:52
  Original Simulation        8  17  2003 Yr    1 of   20 Time  14:17:52
  Original Simulation        8  18  2003 Yr    1 of   20 Time  14:17:53
  Original Simulation        8  19  2003 Yr    1 of   20 Time  14:17:53
  Original Simulation        8  20  2003 Yr    1 of   20 Time  14:17:53
  Original Simulation        8  21  2003 Yr    1 of   20 Time  14:17:54
  Original Simulation        8  22  2003 Yr    1 of   20 Time  14:17:54
  Original Simulation        8  23  2003 Yr    1 of   20 Time  14:17:55
  Original Simulation        8  24  2003 Yr    1 of   20 Time  14:17:55
  Original Simulation        8  25  2003 Yr    1 of   20 Time  14:17:56
  Original Simulation        8  26  2003 Yr    1 of   20 Time  14:17:56
  Original Simulation        8  27  2003 Yr    1 of   20 Time  14:17:57
  Original Simulation        8  28  2003 Yr    1 of   20 Time  14:17:57
  Original Simulation        8  29  2003 Yr    1 of   20 Time  14:17:58
  Original Simulation        8  30  2003 Yr    1 of   20 Time  14:17:58
  Original Simulation        8  31  2003 Yr    1 of   20 Time  14:17:59
  Original Simulation        9   1  2003 Yr    1 of   20 Time  14:17:59
  Original Simulation        9   2  2003 Yr    1 of   20 Time  14:18: 0
  Original Simulation        9   3  2003 Yr    1 of   20 Time  14:18: 0
  Original Simulation        9   4  2003 Yr    1 of   20 Time  14:18: 1
  Original Simulation        9   5  2003 Yr    1 of   20 Time  14:18: 1
  Original Simulation        9   6  2003 Yr    1 of   20 Time  14:18: 2
  Original Simulation        9   7  2003 Yr    1 of   20 Time  14:18: 2
  Original Simulation        9   8  2003 Yr    1 of   20 Time  14:18: 3
  Original Simulation        9   9  2003 Yr    1 of   20 Time  14:18: 3
  Original Simulation        9  10  2003 Yr    1 of   20 Time  14:18: 4
  Original Simulation        9  11  2003 Yr    1 of   20 Time  14:18: 4
  Original Simulation        9  12  2003 Yr    1 of   20 Time  14:18: 5
  Original Simulation        9  13  2003 Yr    1 of   20 Time  14:18: 5
  Original Simulation        9  14  2003 Yr    1 of   20 Time  14:18: 6
  Original Simulation        9  15  2003 Yr    1 of   20 Time  14:18: 6
  Original Simulation        9  16  2003 Yr    1 of   20 Time  14:18: 7
  Original Simulation        9  17  2003 Yr    1 of   20 Time  14:18: 7
  Original Simulation        9  18  2003 Yr    1 of   20 Time  14:18: 8
  Original Simulation        9  19  2003 Yr    1 of   20 Time  14:18: 8
  Original Simulation        9  20  2003 Yr    1 of   20 Time  14:18: 9
  Original Simulation        9  21  2003 Yr    1 of   20 Time  14:18: 9
  Original Simulation        9  22  2003 Yr    1 of   20 Time  14:18:10
  Original Simulation        9  23  2003 Yr    1 of   20 Time  14:18:10
  Original Simulation        9  24  2003 Yr    1 of   20 Time  14:18:10
  Original Simulation        9  25  2003 Yr    1 of   20 Time  14:18:11
  Original Simulation        9  26  2003 Yr    1 of   20 Time  14:18:12
  Original Simulation        9  27  2003 Yr    1 of   20 Time  14:18:12
  Original Simulation        9  28  2003 Yr    1 of   20 Time  14:18:12
  Original Simulation        9  29  2003 Yr    1 of   20 Time  14:18:13
  Original Simulation        9  30  2003 Yr    1 of   20 Time  14:18:13
  Original Simulation       10   1  2003 Yr    1 of   20 Time  14:18:14
  Original Simulation       10   2  2003 Yr    1 of   20 Time  14:18:14
  Original Simulation       10   3  2003 Yr    1 of   20 Time  14:18:15
  Original Simulation       10   4  2003 Yr    1 of   20 Time  14:18:16
  Original Simulation       10   5  2003 Yr    1 of   20 Time  14:18:16
  Original Simulation       10   6  2003 Yr    1 of   20 Time  14:18:17
  Original Simulation       10   7  2003 Yr    1 of   20 Time  14:18:17
  Original Simulation       10   8  2003 Yr    1 of   20 Time  14:18:18
  Original Simulation       10   9  2003 Yr    1 of   20 Time  14:18:18
  Original Simulation       10  10  2003 Yr    1 of   20 Time  14:18:19
  Original Simulation       10  11  2003 Yr    1 of   20 Time  14:18:19
  Original Simulation       10  12  2003 Yr    1 of   20 Time  14:18:19
  Original Simulation       10  13  2003 Yr    1 of   20 Time  14:18:20
  Original Simulation       10  14  2003 Yr    1 of   20 Time  14:18:20
  Original Simulation       10  15  2003 Yr    1 of   20 Time  14:18:21
  Original Simulation       10  16  2003 Yr    1 of   20 Time  14:18:22
  Original Simulation       10  17  2003 Yr    1 of   20 Time  14:18:22
  Original Simulation       10  18  2003 Yr    1 of   20 Time  14:18:22
  Original Simulation       10  19  2003 Yr    1 of   20 Time  14:18:23
  Original Simulation       10  20  2003 Yr    1 of   20 Time  14:18:23
  Original Simulation       10  21  2003 Yr    1 of   20 Time  14:18:24
  Original Simulation       10  22  2003 Yr    1 of   20 Time  14:18:24
  Original Simulation       10  23  2003 Yr    1 of   20 Time  14:18:25
  Original Simulation       10  24  2003 Yr    1 of   20 Time  14:18:25
  Original Simulation       10  25  2003 Yr    1 of   20 Time  14:18:26
  Original Simulation       10  26  2003 Yr    1 of   20 Time  14:18:26
  Original Simulation       10  27  2003 Yr    1 of   20 Time  14:18:27
  Original Simulation       10  28  2003 Yr    1 of   20 Time  14:18:27
  Original Simulation       10  29  2003 Yr    1 of   20 Time  14:18:28
  Original Simulation       10  30  2003 Yr    1 of   20 Time  14:18:28
  Original Simulation       10  31  2003 Yr    1 of   20 Time  14:18:28
  Original Simulation       11   1  2003 Yr    1 of   20 Time  14:18:29
  Original Simulation       11   2  2003 Yr    1 of   20 Time  14:18:29
  Original Simulation       11   3  2003 Yr    1 of   20 Time  14:18:30
  Original Simulation       11   4  2003 Yr    1 of   20 Time  14:18:30
  Original Simulation       11   5  2003 Yr    1 of   20 Time  14:18:31
  Original Simulation       11   6  2003 Yr    1 of   20 Time  14:18:31
  Original Simulation       11   7  2003 Yr    1 of   20 Time  14:18:32
  Original Simulation       11   8  2003 Yr    1 of   20 Time  14:18:32
  Original Simulation       11   9  2003 Yr    1 of   20 Time  14:18:33
  Original Simulation       11  10  2003 Yr    1 of   20 Time  14:18:33
  Original Simulation       11  11  2003 Yr    1 of   20 Time  14:18:34
  Original Simulation       11  12  2003 Yr    1 of   20 Time  14:18:34
  Original Simulation       11  13  2003 Yr    1 of   20 Time  14:18:34
  Original Simulation       11  14  2003 Yr    1 of   20 Time  14:18:35
  Original Simulation       11  15  2003 Yr    1 of   20 Time  14:18:35
  Original Simulation       11  16  2003 Yr    1 of   20 Time  14:18:36
  Original Simulation       11  17  2003 Yr    1 of   20 Time  14:18:36
  Original Simulation       11  18  2003 Yr    1 of   20 Time  14:18:37
  Original Simulation       11  19  2003 Yr    1 of   20 Time  14:18:37
  Original Simulation       11  20  2003 Yr    1 of   20 Time  14:18:38
  Original Simulation       11  21  2003 Yr    1 of   20 Time  14:18:38
  Original Simulation       11  22  2003 Yr    1 of   20 Time  14:18:39
  Original Simulation       11  23  2003 Yr    1 of   20 Time  14:18:39
  Original Simulation       11  24  2003 Yr    1 of   20 Time  14:18:40
  Original Simulation       11  25  2003 Yr    1 of   20 Time  14:18:41
  Original Simulation       11  26  2003 Yr    1 of   20 Time  14:18:41
  Original Simulation       11  27  2003 Yr    1 of   20 Time  14:18:42
  Original Simulation       11  28  2003 Yr    1 of   20 Time  14:18:42
  Original Simulation       11  29  2003 Yr    1 of   20 Time  14:18:43
  Original Simulation       11  30  2003 Yr    1 of   20 Time  14:18:43
  Original Simulation       12   1  2003 Yr    1 of   20 Time  14:18:43
  Original Simulation       12   2  2003 Yr    1 of   20 Time  14:18:44
  Original Simulation       12   3  2003 Yr    1 of   20 Time  14:18:44
  Original Simulation       12   4  2003 Yr    1 of   20 Time  14:18:45
  Original Simulation       12   5  2003 Yr    1 of   20 Time  14:18:45
  Original Simulation       12   6  2003 Yr    1 of   20 Time  14:18:46
  Original Simulation       12   7  2003 Yr    1 of   20 Time  14:18:46
  Original Simulation       12   8  2003 Yr    1 of   20 Time  14:18:46
  Original Simulation       12   9  2003 Yr    1 of   20 Time  14:18:47
  Original Simulation       12  10  2003 Yr    1 of   20 Time  14:18:47
  Original Simulation       12  11  2003 Yr    1 of   20 Time  14:18:48
  Original Simulation       12  12  2003 Yr    1 of   20 Time  14:18:48
  Original Simulation       12  13  2003 Yr    1 of   20 Time  14:18:49
  Original Simulation       12  14  2003 Yr    1 of   20 Time  14:18:49
  Original Simulation       12  15  2003 Yr    1 of   20 Time  14:18:50
  Original Simulation       12  16  2003 Yr    1 of   20 Time  14:18:50
  Original Simulation       12  17  2003 Yr    1 of   20 Time  14:18:51
  Original Simulation       12  18  2003 Yr    1 of   20 Time  14:18:51
  Original Simulation       12  19  2003 Yr    1 of   20 Time  14:18:52
  Original Simulation       12  20  2003 Yr    1 of   20 Time  14:18:52
  Original Simulation       12  21  2003 Yr    1 of   20 Time  14:18:53
  Original Simulation       12  22  2003 Yr    1 of   20 Time  14:18:53
  Original Simulation       12  23  2003 Yr    1 of   20 Time  14:18:54
  Original Simulation       12  24  2003 Yr    1 of   20 Time  14:18:54
  Original Simulation       12  25  2003 Yr    1 of   20 Time  14:18:55
  Original Simulation       12  26  2003 Yr    1 of   20 Time  14:18:55
  Original Simulation       12  27  2003 Yr    1 of   20 Time  14:18:56
  Original Simulation       12  28  2003 Yr    1 of   20 Time  14:18:56
  Original Simulation       12  29  2003 Yr    1 of   20 Time  14:18:57
  Original Simulation       12  30  2003 Yr    1 of   20 Time  14:18:57
  Original Simulation       12  31  2003 Yr    1 of   20 Time  14:18:58
  Original Simulation        1   1  2004 Yr    2 of   20 Time  14:18:58
  Original Simulation        1   2  2004 Yr    2 of   20 Time  14:18:59
  Original Simulation        1   3  2004 Yr    2 of   20 Time  14:18:59
  Original Simulation        1   4  2004 Yr    2 of   20 Time  14:19: 0
  Original Simulation        1   5  2004 Yr    2 of   20 Time  14:19: 0
  Original Simulation        1   6  2004 Yr    2 of   20 Time  14:19: 1
  Original Simulation        1   7  2004 Yr    2 of   20 Time  14:19: 1
  Original Simulation        1   8  2004 Yr    2 of   20 Time  14:19: 2
  Original Simulation        1   9  2004 Yr    2 of   20 Time  14:19: 2
  Original Simulation        1  10  2004 Yr    2 of   20 Time  14:19: 3
  Original Simulation        1  11  2004 Yr    2 of   20 Time  14:19: 3
  Original Simulation        1  12  2004 Yr    2 of   20 Time  14:19: 4
  Original Simulation        1  13  2004 Yr    2 of   20 Time  14:19: 4
  Original Simulation        1  14  2004 Yr    2 of   20 Time  14:19: 5
  Original Simulation        1  15  2004 Yr    2 of   20 Time  14:19: 5
  Original Simulation        1  16  2004 Yr    2 of   20 Time  14:19: 6
  Original Simulation        1  17  2004 Yr    2 of   20 Time  14:19: 6
  Original Simulation        1  18  2004 Yr    2 of   20 Time  14:19: 7
  Original Simulation        1  19  2004 Yr    2 of   20 Time  14:19: 7
  Original Simulation        1  20  2004 Yr    2 of   20 Time  14:19: 8
  Original Simulation        1  21  2004 Yr    2 of   20 Time  14:19: 8
  Original Simulation        1  22  2004 Yr    2 of   20 Time  14:19: 9
  Original Simulation        1  23  2004 Yr    2 of   20 Time  14:19: 9
  Original Simulation        1  24  2004 Yr    2 of   20 Time  14:19:10
  Original Simulation        1  25  2004 Yr    2 of   20 Time  14:19:10
  Original Simulation        1  26  2004 Yr    2 of   20 Time  14:19:11
  Original Simulation        1  27  2004 Yr    2 of   20 Time  14:19:11
  Original Simulation        1  28  2004 Yr    2 of   20 Time  14:19:12
  Original Simulation        1  29  2004 Yr    2 of   20 Time  14:19:12
  Original Simulation        1  30  2004 Yr    2 of   20 Time  14:19:13
  Original Simulation        1  31  2004 Yr    2 of   20 Time  14:19:13
  Original Simulation        2   1  2004 Yr    2 of   20 Time  14:19:14
  Original Simulation        2   2  2004 Yr    2 of   20 Time  14:19:14
  Original Simulation        2   3  2004 Yr    2 of   20 Time  14:19:15
  Original Simulation        2   4  2004 Yr    2 of   20 Time  14:19:15
  Original Simulation        2   5  2004 Yr    2 of   20 Time  14:19:16
  Original Simulation        2   6  2004 Yr    2 of   20 Time  14:19:16
  Original Simulation        2   7  2004 Yr    2 of   20 Time  14:19:17
  Original Simulation        2   8  2004 Yr    2 of   20 Time  14:19:17
  Original Simulation        2   9  2004 Yr    2 of   20 Time  14:19:18
  Original Simulation        2  10  2004 Yr    2 of   20 Time  14:19:18
  Original Simulation        2  11  2004 Yr    2 of   20 Time  14:19:19
  Original Simulation        2  12  2004 Yr    2 of   20 Time  14:19:19
  Original Simulation        2  13  2004 Yr    2 of   20 Time  14:19:20
  Original Simulation        2  14  2004 Yr    2 of   20 Time  14:19:20
  Original Simulation        2  15  2004 Yr    2 of   20 Time  14:19:21
  Original Simulation        2  16  2004 Yr    2 of   20 Time  14:19:21
  Original Simulation        2  17  2004 Yr    2 of   20 Time  14:19:22
  Original Simulation        2  18  2004 Yr    2 of   20 Time  14:19:22
  Original Simulation        2  19  2004 Yr    2 of   20 Time  14:19:23
  Original Simulation        2  20  2004 Yr    2 of   20 Time  14:19:23
  Original Simulation        2  21  2004 Yr    2 of   20 Time  14:19:24
  Original Simulation        2  22  2004 Yr    2 of   20 Time  14:19:24
  Original Simulation        2  23  2004 Yr    2 of   20 Time  14:19:25
  Original Simulation        2  24  2004 Yr    2 of   20 Time  14:19:25
  Original Simulation        2  25  2004 Yr    2 of   20 Time  14:19:26
  Original Simulation        2  26  2004 Yr    2 of   20 Time  14:19:26
  Original Simulation        2  27  2004 Yr    2 of   20 Time  14:19:27
  Original Simulation        2  28  2004 Yr    2 of   20 Time  14:19:27
  Original Simulation        2  29  2004 Yr    2 of   20 Time  14:19:28
  Original Simulation        3   1  2004 Yr    2 of   20 Time  14:19:28
  Original Simulation        3   2  2004 Yr    2 of   20 Time  14:19:28
  Original Simulation        3   3  2004 Yr    2 of   20 Time  14:19:29
  Original Simulation        3   4  2004 Yr    2 of   20 Time  14:19:29
  Original Simulation        3   5  2004 Yr    2 of   20 Time  14:19:30
  Original Simulation        3   6  2004 Yr    2 of   20 Time  14:19:30
  Original Simulation        3   7  2004 Yr    2 of   20 Time  14:19:31
  Original Simulation        3   8  2004 Yr    2 of   20 Time  14:19:31
  Original Simulation        3   9  2004 Yr    2 of   20 Time  14:19:31
  Original Simulation        3  10  2004 Yr    2 of   20 Time  14:19:32
  Original Simulation        3  11  2004 Yr    2 of   20 Time  14:19:32
  Original Simulation        3  12  2004 Yr    2 of   20 Time  14:19:33
  Original Simulation        3  13  2004 Yr    2 of   20 Time  14:19:33
  Original Simulation        3  14  2004 Yr    2 of   20 Time  14:19:34
  Original Simulation        3  15  2004 Yr    2 of   20 Time  14:19:34
  Original Simulation        3  16  2004 Yr    2 of   20 Time  14:19:35
  Original Simulation        3  17  2004 Yr    2 of   20 Time  14:19:35
  Original Simulation        3  18  2004 Yr    2 of   20 Time  14:19:36
  Original Simulation        3  19  2004 Yr    2 of   20 Time  14:19:36
  Original Simulation        3  20  2004 Yr    2 of   20 Time  14:19:36
  Original Simulation        3  21  2004 Yr    2 of   20 Time  14:19:37
  Original Simulation        3  22  2004 Yr    2 of   20 Time  14:19:38
  Original Simulation        3  23  2004 Yr    2 of   20 Time  14:19:38
  Original Simulation        3  24  2004 Yr    2 of   20 Time  14:19:38
  Original Simulation        3  25  2004 Yr    2 of   20 Time  14:19:39
  Original Simulation        3  26  2004 Yr    2 of   20 Time  14:19:39
  Original Simulation        3  27  2004 Yr    2 of   20 Time  14:19:40
  Original Simulation        3  28  2004 Yr    2 of   20 Time  14:19:40
  Original Simulation        3  29  2004 Yr    2 of   20 Time  14:19:41
  Original Simulation        3  30  2004 Yr    2 of   20 Time  14:19:41
  Original Simulation        3  31  2004 Yr    2 of   20 Time  14:19:41
  Original Simulation        4   1  2004 Yr    2 of   20 Time  14:19:42
  Original Simulation        4   2  2004 Yr    2 of   20 Time  14:19:43
  Original Simulation        4   3  2004 Yr    2 of   20 Time  14:19:43
  Original Simulation        4   4  2004 Yr    2 of   20 Time  14:19:43
  Original Simulation        4   5  2004 Yr    2 of   20 Time  14:19:44
  Original Simulation        4   6  2004 Yr    2 of   20 Time  14:19:44
  Original Simulation        4   7  2004 Yr    2 of   20 Time  14:19:45
  Original Simulation        4   8  2004 Yr    2 of   20 Time  14:19:45
  Original Simulation        4   9  2004 Yr    2 of   20 Time  14:19:46
  Original Simulation        4  10  2004 Yr    2 of   20 Time  14:19:46
  Original Simulation        4  11  2004 Yr    2 of   20 Time  14:19:47
  Original Simulation        4  12  2004 Yr    2 of   20 Time  14:19:47
  Original Simulation        4  13  2004 Yr    2 of   20 Time  14:19:48
  Original Simulation        4  14  2004 Yr    2 of   20 Time  14:19:48
  Original Simulation        4  15  2004 Yr    2 of   20 Time  14:19:49
  Original Simulation        4  16  2004 Yr    2 of   20 Time  14:19:49
  Original Simulation        4  17  2004 Yr    2 of   20 Time  14:19:50
  Original Simulation        4  18  2004 Yr    2 of   20 Time  14:19:50
  Original Simulation        4  19  2004 Yr    2 of   20 Time  14:19:51
  Original Simulation        4  20  2004 Yr    2 of   20 Time  14:19:51
  Original Simulation        4  21  2004 Yr    2 of   20 Time  14:19:52
  Original Simulation        4  22  2004 Yr    2 of   20 Time  14:19:52
  Original Simulation        4  23  2004 Yr    2 of   20 Time  14:19:53
  Original Simulation        4  24  2004 Yr    2 of   20 Time  14:19:53
  Original Simulation        4  25  2004 Yr    2 of   20 Time  14:19:53
  Original Simulation        4  26  2004 Yr    2 of   20 Time  14:19:54
  Original Simulation        4  27  2004 Yr    2 of   20 Time  14:19:54
  Original Simulation        4  28  2004 Yr    2 of   20 Time  14:19:55
  Original Simulation        4  29  2004 Yr    2 of   20 Time  14:19:55
  Original Simulation        4  30  2004 Yr    2 of   20 Time  14:19:56
  Original Simulation        5   1  2004 Yr    2 of   20 Time  14:19:56
  Original Simulation        5   2  2004 Yr    2 of   20 Time  14:19:57
  Original Simulation        5   3  2004 Yr    2 of   20 Time  14:19:57
  Original Simulation        5   4  2004 Yr    2 of   20 Time  14:19:58
  Original Simulation        5   5  2004 Yr    2 of   20 Time  14:19:58
  Original Simulation        5   6  2004 Yr    2 of   20 Time  14:19:59
  Original Simulation        5   7  2004 Yr    2 of   20 Time  14:19:59
  Original Simulation        5   8  2004 Yr    2 of   20 Time  14:20: 0
  Original Simulation        5   9  2004 Yr    2 of   20 Time  14:20: 0
  Original Simulation        5  10  2004 Yr    2 of   20 Time  14:20: 1
  Original Simulation        5  11  2004 Yr    2 of   20 Time  14:20: 1
  Original Simulation        5  12  2004 Yr    2 of   20 Time  14:20: 2
  Original Simulation        5  13  2004 Yr    2 of   20 Time  14:20: 2
  Original Simulation        5  14  2004 Yr    2 of   20 Time  14:20: 3
  Original Simulation        5  15  2004 Yr    2 of   20 Time  14:20: 3
  Original Simulation        5  16  2004 Yr    2 of   20 Time  14:20: 4
  Original Simulation        5  17  2004 Yr    2 of   20 Time  14:20: 4
  Original Simulation        5  18  2004 Yr    2 of   20 Time  14:20: 5
  Original Simulation        5  19  2004 Yr    2 of   20 Time  14:20: 5
  Original Simulation        5  20  2004 Yr    2 of   20 Time  14:20: 6
  Original Simulation        5  21  2004 Yr    2 of   20 Time  14:20: 6
  Original Simulation        5  22  2004 Yr    2 of   20 Time  14:20: 7
  Original Simulation        5  23  2004 Yr    2 of   20 Time  14:20: 8
  Original Simulation        5  24  2004 Yr    2 of   20 Time  14:20: 8
  Original Simulation        5  25  2004 Yr    2 of   20 Time  14:20: 8
  Original Simulation        5  26  2004 Yr    2 of   20 Time  14:20: 9
  Original Simulation        5  27  2004 Yr    2 of   20 Time  14:20:10
  Original Simulation        5  28  2004 Yr    2 of   20 Time  14:20:10
  Original Simulation        5  29  2004 Yr    2 of   20 Time  14:20:10
  Original Simulation        5  30  2004 Yr    2 of   20 Time  14:20:11
  Original Simulation        5  31  2004 Yr    2 of   20 Time  14:20:11
  Original Simulation        6   1  2004 Yr    2 of   20 Time  14:20:12
  Original Simulation        6   2  2004 Yr    2 of   20 Time  14:20:12
  Original Simulation        6   3  2004 Yr    2 of   20 Time  14:20:13
  Original Simulation        6   4  2004 Yr    2 of   20 Time  14:20:14
  Original Simulation        6   5  2004 Yr    2 of   20 Time  14:20:14
  Original Simulation        6   6  2004 Yr    2 of   20 Time  14:20:14
  Original Simulation        6   7  2004 Yr    2 of   20 Time  14:20:15
  Original Simulation        6   8  2004 Yr    2 of   20 Time  14:20:15
  Original Simulation        6   9  2004 Yr    2 of   20 Time  14:20:16
  Original Simulation        6  10  2004 Yr    2 of   20 Time  14:20:16
  Original Simulation        6  11  2004 Yr    2 of   20 Time  14:20:17
  Original Simulation        6  12  2004 Yr    2 of   20 Time  14:20:17
  Original Simulation        6  13  2004 Yr    2 of   20 Time  14:20:18
  Original Simulation        6  14  2004 Yr    2 of   20 Time  14:20:18
  Original Simulation        6  15  2004 Yr    2 of   20 Time  14:20:19
  Original Simulation        6  16  2004 Yr    2 of   20 Time  14:20:19
  Original Simulation        6  17  2004 Yr    2 of   20 Time  14:20:20
  Original Simulation        6  18  2004 Yr    2 of   20 Time  14:20:20
  Original Simulation        6  19  2004 Yr    2 of   20 Time  14:20:21
  Original Simulation        6  20  2004 Yr    2 of   20 Time  14:20:21
  Original Simulation        6  21  2004 Yr    2 of   20 Time  14:20:22
  Original Simulation        6  22  2004 Yr    2 of   20 Time  14:20:22
  Original Simulation        6  23  2004 Yr    2 of   20 Time  14:20:22
  Original Simulation        6  24  2004 Yr    2 of   20 Time  14:20:23
  Original Simulation        6  25  2004 Yr    2 of   20 Time  14:20:23
  Original Simulation        6  26  2004 Yr    2 of   20 Time  14:20:24
  Original Simulation        6  27  2004 Yr    2 of   20 Time  14:20:24
  Original Simulation        6  28  2004 Yr    2 of   20 Time  14:20:25
  Original Simulation        6  29  2004 Yr    2 of   20 Time  14:20:25
  Original Simulation        6  30  2004 Yr    2 of   20 Time  14:20:26
  Original Simulation        7   1  2004 Yr    2 of   20 Time  14:20:26
  Original Simulation        7   2  2004 Yr    2 of   20 Time  14:20:27
  Original Simulation        7   3  2004 Yr    2 of   20 Time  14:20:27
  Original Simulation        7   4  2004 Yr    2 of   20 Time  14:20:28
  Original Simulation        7   5  2004 Yr    2 of   20 Time  14:20:28
  Original Simulation        7   6  2004 Yr    2 of   20 Time  14:20:29
  Original Simulation        7   7  2004 Yr    2 of   20 Time  14:20:29
  Original Simulation        7   8  2004 Yr    2 of   20 Time  14:20:30
  Original Simulation        7   9  2004 Yr    2 of   20 Time  14:20:31
  Original Simulation        7  10  2004 Yr    2 of   20 Time  14:20:31
  Original Simulation        7  11  2004 Yr    2 of   20 Time  14:20:31
  Original Simulation        7  12  2004 Yr    2 of   20 Time  14:20:32
  Original Simulation        7  13  2004 Yr    2 of   20 Time  14:20:32
  Original Simulation        7  14  2004 Yr    2 of   20 Time  14:20:33
  Original Simulation        7  15  2004 Yr    2 of   20 Time  14:20:33
  Original Simulation        7  16  2004 Yr    2 of   20 Time  14:20:34
  Original Simulation        7  17  2004 Yr    2 of   20 Time  14:20:34
  Original Simulation        7  18  2004 Yr    2 of   20 Time  14:20:35
  Original Simulation        7  19  2004 Yr    2 of   20 Time  14:20:35
  Original Simulation        7  20  2004 Yr    2 of   20 Time  14:20:36
  Original Simulation        7  21  2004 Yr    2 of   20 Time  14:20:36
  Original Simulation        7  22  2004 Yr    2 of   20 Time  14:20:37
  Original Simulation        7  23  2004 Yr    2 of   20 Time  14:20:37
  Original Simulation        7  24  2004 Yr    2 of   20 Time  14:20:37
  Original Simulation        7  25  2004 Yr    2 of   20 Time  14:20:38
  Original Simulation        7  26  2004 Yr    2 of   20 Time  14:20:39
  Original Simulation        7  27  2004 Yr    2 of   20 Time  14:20:39
  Original Simulation        7  28  2004 Yr    2 of   20 Time  14:20:40
  Original Simulation        7  29  2004 Yr    2 of   20 Time  14:20:40
  Original Simulation        7  30  2004 Yr    2 of   20 Time  14:20:41
  Original Simulation        7  31  2004 Yr    2 of   20 Time  14:20:41
  Original Simulation        8   1  2004 Yr    2 of   20 Time  14:20:42
  Original Simulation        8   2  2004 Yr    2 of   20 Time  14:20:42
  Original Simulation        8   3  2004 Yr    2 of   20 Time  14:20:43
  Original Simulation        8   4  2004 Yr    2 of   20 Time  14:20:43
  Original Simulation        8   5  2004 Yr    2 of   20 Time  14:20:43
  Original Simulation        8   6  2004 Yr    2 of   20 Time  14:20:44
  Original Simulation        8   7  2004 Yr    2 of   20 Time  14:20:44
  Original Simulation        8   8  2004 Yr    2 of   20 Time  14:20:45
  Original Simulation        8   9  2004 Yr    2 of   20 Time  14:20:45
  Original Simulation        8  10  2004 Yr    2 of   20 Time  14:20:46
  Original Simulation        8  11  2004 Yr    2 of   20 Time  14:20:46
  Original Simulation        8  12  2004 Yr    2 of   20 Time  14:20:47
  Original Simulation        8  13  2004 Yr    2 of   20 Time  14:20:47
  Original Simulation        8  14  2004 Yr    2 of   20 Time  14:20:48
  Original Simulation        8  15  2004 Yr    2 of   20 Time  14:20:48
  Original Simulation        8  16  2004 Yr    2 of   20 Time  14:20:49
  Original Simulation        8  17  2004 Yr    2 of   20 Time  14:20:49
  Original Simulation        8  18  2004 Yr    2 of   20 Time  14:20:50
  Original Simulation        8  19  2004 Yr    2 of   20 Time  14:20:50
  Original Simulation        8  20  2004 Yr    2 of   20 Time  14:20:51
  Original Simulation        8  21  2004 Yr    2 of   20 Time  14:20:51
  Original Simulation        8  22  2004 Yr    2 of   20 Time  14:20:52
  Original Simulation        8  23  2004 Yr    2 of   20 Time  14:20:52
  Original Simulation        8  24  2004 Yr    2 of   20 Time  14:20:52
  Original Simulation        8  25  2004 Yr    2 of   20 Time  14:20:53
  Original Simulation        8  26  2004 Yr    2 of   20 Time  14:20:53
  Original Simulation        8  27  2004 Yr    2 of   20 Time  14:20:54
  Original Simulation        8  28  2004 Yr    2 of   20 Time  14:20:54
  Original Simulation        8  29  2004 Yr    2 of   20 Time  14:20:55
  Original Simulation        8  30  2004 Yr    2 of   20 Time  14:20:55
  Original Simulation        8  31  2004 Yr    2 of   20 Time  14:20:56
  Original Simulation        9   1  2004 Yr    2 of   20 Time  14:20:56
  Original Simulation        9   2  2004 Yr    2 of   20 Time  14:20:57
  Original Simulation        9   3  2004 Yr    2 of   20 Time  14:20:57
  Original Simulation        9   4  2004 Yr    2 of   20 Time  14:20:58
  Original Simulation        9   5  2004 Yr    2 of   20 Time  14:20:58
  Original Simulation        9   6  2004 Yr    2 of   20 Time  14:20:59
  Original Simulation        9   7  2004 Yr    2 of   20 Time  14:20:59
  Original Simulation        9   8  2004 Yr    2 of   20 Time  14:21: 0
  Original Simulation        9   9  2004 Yr    2 of   20 Time  14:21: 0
  Original Simulation        9  10  2004 Yr    2 of   20 Time  14:21: 1
  Original Simulation        9  11  2004 Yr    2 of   20 Time  14:21: 1
  Original Simulation        9  12  2004 Yr    2 of   20 Time  14:21: 2
  Original Simulation        9  13  2004 Yr    2 of   20 Time  14:21: 2
  Original Simulation        9  14  2004 Yr    2 of   20 Time  14:21: 3
  Original Simulation        9  15  2004 Yr    2 of   20 Time  14:21: 3
  Original Simulation        9  16  2004 Yr    2 of   20 Time  14:21: 4
  Original Simulation        9  17  2004 Yr    2 of   20 Time  14:21: 4
  Original Simulation        9  18  2004 Yr    2 of   20 Time  14:21: 5
  Original Simulation        9  19  2004 Yr    2 of   20 Time  14:21: 5
  Original Simulation        9  20  2004 Yr    2 of   20 Time  14:21: 6
  Original Simulation        9  21  2004 Yr    2 of   20 Time  14:21: 6
  Original Simulation        9  22  2004 Yr    2 of   20 Time  14:21: 7
  Original Simulation        9  23  2004 Yr    2 of   20 Time  14:21: 7
  Original Simulation        9  24  2004 Yr    2 of   20 Time  14:21: 8
  Original Simulation        9  25  2004 Yr    2 of   20 Time  14:21: 8
  Original Simulation        9  26  2004 Yr    2 of   20 Time  14:21: 9
  Original Simulation        9  27  2004 Yr    2 of   20 Time  14:21: 9
  Original Simulation        9  28  2004 Yr    2 of   20 Time  14:21: 9
  Original Simulation        9  29  2004 Yr    2 of   20 Time  14:21:10
  Original Simulation        9  30  2004 Yr    2 of   20 Time  14:21:11
  Original Simulation       10   1  2004 Yr    2 of   20 Time  14:21:11
  Original Simulation       10   2  2004 Yr    2 of   20 Time  14:21:11
  Original Simulation       10   3  2004 Yr    2 of   20 Time  14:21:12
  Original Simulation       10   4  2004 Yr    2 of   20 Time  14:21:12
  Original Simulation       10   5  2004 Yr    2 of   20 Time  14:21:13
  Original Simulation       10   6  2004 Yr    2 of   20 Time  14:21:13
  Original Simulation       10   7  2004 Yr    2 of   20 Time  14:21:14
  Original Simulation       10   8  2004 Yr    2 of   20 Time  14:21:14
  Original Simulation       10   9  2004 Yr    2 of   20 Time  14:21:15
  Original Simulation       10  10  2004 Yr    2 of   20 Time  14:21:15
  Original Simulation       10  11  2004 Yr    2 of   20 Time  14:21:16
  Original Simulation       10  12  2004 Yr    2 of   20 Time  14:21:16
  Original Simulation       10  13  2004 Yr    2 of   20 Time  14:21:17
  Original Simulation       10  14  2004 Yr    2 of   20 Time  14:21:17
  Original Simulation       10  15  2004 Yr    2 of   20 Time  14:21:18
  Original Simulation       10  16  2004 Yr    2 of   20 Time  14:21:18
  Original Simulation       10  17  2004 Yr    2 of   20 Time  14:21:19
  Original Simulation       10  18  2004 Yr    2 of   20 Time  14:21:19
  Original Simulation       10  19  2004 Yr    2 of   20 Time  14:21:20
  Original Simulation       10  20  2004 Yr    2 of   20 Time  14:21:20
  Original Simulation       10  21  2004 Yr    2 of   20 Time  14:21:21
  Original Simulation       10  22  2004 Yr    2 of   20 Time  14:21:21
  Original Simulation       10  23  2004 Yr    2 of   20 Time  14:21:22
  Original Simulation       10  24  2004 Yr    2 of   20 Time  14:21:22
  Original Simulation       10  25  2004 Yr    2 of   20 Time  14:21:23
  Original Simulation       10  26  2004 Yr    2 of   20 Time  14:21:23
  Original Simulation       10  27  2004 Yr    2 of   20 Time  14:21:24
  Original Simulation       10  28  2004 Yr    2 of   20 Time  14:21:24
  Original Simulation       10  29  2004 Yr    2 of   20 Time  14:21:24
  Original Simulation       10  30  2004 Yr    2 of   20 Time  14:21:25
  Original Simulation       10  31  2004 Yr    2 of   20 Time  14:21:25
  Original Simulation       11   1  2004 Yr    2 of   20 Time  14:21:26
  Original Simulation       11   2  2004 Yr    2 of   20 Time  14:21:26
  Original Simulation       11   3  2004 Yr    2 of   20 Time  14:21:27
  Original Simulation       11   4  2004 Yr    2 of   20 Time  14:21:27
  Original Simulation       11   5  2004 Yr    2 of   20 Time  14:21:27
  Original Simulation       11   6  2004 Yr    2 of   20 Time  14:21:28
  Original Simulation       11   7  2004 Yr    2 of   20 Time  14:21:29
  Original Simulation       11   8  2004 Yr    2 of   20 Time  14:21:29
  Original Simulation       11   9  2004 Yr    2 of   20 Time  14:21:29
  Original Simulation       11  10  2004 Yr    2 of   20 Time  14:21:30
  Original Simulation       11  11  2004 Yr    2 of   20 Time  14:21:30
  Original Simulation       11  12  2004 Yr    2 of   20 Time  14:21:31
  Original Simulation       11  13  2004 Yr    2 of   20 Time  14:21:31
  Original Simulation       11  14  2004 Yr    2 of   20 Time  14:21:32
  Original Simulation       11  15  2004 Yr    2 of   20 Time  14:21:32
  Original Simulation       11  16  2004 Yr    2 of   20 Time  14:21:33
  Original Simulation       11  17  2004 Yr    2 of   20 Time  14:21:33
  Original Simulation       11  18  2004 Yr    2 of   20 Time  14:21:34
  Original Simulation       11  19  2004 Yr    2 of   20 Time  14:21:34
  Original Simulation       11  20  2004 Yr    2 of   20 Time  14:21:35
  Original Simulation       11  21  2004 Yr    2 of   20 Time  14:21:35
  Original Simulation       11  22  2004 Yr    2 of   20 Time  14:21:36
  Original Simulation       11  23  2004 Yr    2 of   20 Time  14:21:36
  Original Simulation       11  24  2004 Yr    2 of   20 Time  14:21:37
  Original Simulation       11  25  2004 Yr    2 of   20 Time  14:21:37
  Original Simulation       11  26  2004 Yr    2 of   20 Time  14:21:37
  Original Simulation       11  27  2004 Yr    2 of   20 Time  14:21:38
  Original Simulation       11  28  2004 Yr    2 of   20 Time  14:21:38
  Original Simulation       11  29  2004 Yr    2 of   20 Time  14:21:39
  Original Simulation       11  30  2004 Yr    2 of   20 Time  14:21:39
  Original Simulation       12   1  2004 Yr    2 of   20 Time  14:21:40
  Original Simulation       12   2  2004 Yr    2 of   20 Time  14:21:40
  Original Simulation       12   3  2004 Yr    2 of   20 Time  14:21:41
  Original Simulation       12   4  2004 Yr    2 of   20 Time  14:21:41
  Original Simulation       12   5  2004 Yr    2 of   20 Time  14:21:41
  Original Simulation       12   6  2004 Yr    2 of   20 Time  14:21:42
  Original Simulation       12   7  2004 Yr    2 of   20 Time  14:21:42
  Original Simulation       12   8  2004 Yr    2 of   20 Time  14:21:43
  Original Simulation       12   9  2004 Yr    2 of   20 Time  14:21:43
  Original Simulation       12  10  2004 Yr    2 of   20 Time  14:21:44
  Original Simulation       12  11  2004 Yr    2 of   20 Time  14:21:44
  Original Simulation       12  12  2004 Yr    2 of   20 Time  14:21:45
  Original Simulation       12  13  2004 Yr    2 of   20 Time  14:21:45
  Original Simulation       12  14  2004 Yr    2 of   20 Time  14:21:45
  Original Simulation       12  15  2004 Yr    2 of   20 Time  14:21:46
  Original Simulation       12  16  2004 Yr    2 of   20 Time  14:21:46
  Original Simulation       12  17  2004 Yr    2 of   20 Time  14:21:47
  Original Simulation       12  18  2004 Yr    2 of   20 Time  14:21:47
  Original Simulation       12  19  2004 Yr    2 of   20 Time  14:21:48
  Original Simulation       12  20  2004 Yr    2 of   20 Time  14:21:48
  Original Simulation       12  21  2004 Yr    2 of   20 Time  14:21:49
  Original Simulation       12  22  2004 Yr    2 of   20 Time  14:21:49
  Original Simulation       12  23  2004 Yr    2 of   20 Time  14:21:50
  Original Simulation       12  24  2004 Yr    2 of   20 Time  14:21:50
  Original Simulation       12  25  2004 Yr    2 of   20 Time  14:21:51
  Original Simulation       12  26  2004 Yr    2 of   20 Time  14:21:51
  Original Simulation       12  27  2004 Yr    2 of   20 Time  14:21:52
  Original Simulation       12  28  2004 Yr    2 of   20 Time  14:21:52
  Original Simulation       12  29  2004 Yr    2 of   20 Time  14:21:53
  Original Simulation       12  30  2004 Yr    2 of   20 Time  14:21:53
  Original Simulation       12  31  2004 Yr    2 of   20 Time  14:21:54
  Original Simulation        1   1  2005 Yr    3 of   20 Time  14:21:54
  Original Simulation        1   2  2005 Yr    3 of   20 Time  14:21:55
  Original Simulation        1   3  2005 Yr    3 of   20 Time  14:21:55
  Original Simulation        1   4  2005 Yr    3 of   20 Time  14:21:56
  Original Simulation        1   5  2005 Yr    3 of   20 Time  14:21:56
  Original Simulation        1   6  2005 Yr    3 of   20 Time  14:21:56
  Original Simulation        1   7  2005 Yr    3 of   20 Time  14:21:57
  Original Simulation        1   8  2005 Yr    3 of   20 Time  14:21:57
  Original Simulation        1   9  2005 Yr    3 of   20 Time  14:21:58
  Original Simulation        1  10  2005 Yr    3 of   20 Time  14:21:58
  Original Simulation        1  11  2005 Yr    3 of   20 Time  14:21:59
  Original Simulation        1  12  2005 Yr    3 of   20 Time  14:21:59
  Original Simulation        1  13  2005 Yr    3 of   20 Time  14:22: 0
  Original Simulation        1  14  2005 Yr    3 of   20 Time  14:22: 0
  Original Simulation        1  15  2005 Yr    3 of   20 Time  14:22: 1
  Original Simulation        1  16  2005 Yr    3 of   20 Time  14:22: 1
  Original Simulation        1  17  2005 Yr    3 of   20 Time  14:22: 1
  Original Simulation        1  18  2005 Yr    3 of   20 Time  14:22: 2
  Original Simulation        1  19  2005 Yr    3 of   20 Time  14:22: 2
  Original Simulation        1  20  2005 Yr    3 of   20 Time  14:22: 3
  Original Simulation        1  21  2005 Yr    3 of   20 Time  14:22: 3
  Original Simulation        1  22  2005 Yr    3 of   20 Time  14:22: 4
  Original Simulation        1  23  2005 Yr    3 of   20 Time  14:22: 4
  Original Simulation        1  24  2005 Yr    3 of   20 Time  14:22: 5
  Original Simulation        1  25  2005 Yr    3 of   20 Time  14:22: 5
  Original Simulation        1  26  2005 Yr    3 of   20 Time  14:22: 6
  Original Simulation        1  27  2005 Yr    3 of   20 Time  14:22: 6
  Original Simulation        1  28  2005 Yr    3 of   20 Time  14:22: 7
  Original Simulation        1  29  2005 Yr    3 of   20 Time  14:22: 7
  Original Simulation        1  30  2005 Yr    3 of   20 Time  14:22: 8
  Original Simulation        1  31  2005 Yr    3 of   20 Time  14:22: 8
  Original Simulation        2   1  2005 Yr    3 of   20 Time  14:22: 9
  Original Simulation        2   2  2005 Yr    3 of   20 Time  14:22: 9
  Original Simulation        2   3  2005 Yr    3 of   20 Time  14:22:10
  Original Simulation        2   4  2005 Yr    3 of   20 Time  14:22:10
  Original Simulation        2   5  2005 Yr    3 of   20 Time  14:22:11
  Original Simulation        2   6  2005 Yr    3 of   20 Time  14:22:11
  Original Simulation        2   7  2005 Yr    3 of   20 Time  14:22:12
  Original Simulation        2   8  2005 Yr    3 of   20 Time  14:22:12
  Original Simulation        2   9  2005 Yr    3 of   20 Time  14:22:13
  Original Simulation        2  10  2005 Yr    3 of   20 Time  14:22:13
  Original Simulation        2  11  2005 Yr    3 of   20 Time  14:22:14
  Original Simulation        2  12  2005 Yr    3 of   20 Time  14:22:14
  Original Simulation        2  13  2005 Yr    3 of   20 Time  14:22:15
  Original Simulation        2  14  2005 Yr    3 of   20 Time  14:22:15
  Original Simulation        2  15  2005 Yr    3 of   20 Time  14:22:15
  Original Simulation        2  16  2005 Yr    3 of   20 Time  14:22:16
  Original Simulation        2  17  2005 Yr    3 of   20 Time  14:22:16
  Original Simulation        2  18  2005 Yr    3 of   20 Time  14:22:17
  Original Simulation        2  19  2005 Yr    3 of   20 Time  14:22:17
  Original Simulation        2  20  2005 Yr    3 of   20 Time  14:22:18
  Original Simulation        2  21  2005 Yr    3 of   20 Time  14:22:18
  Original Simulation        2  22  2005 Yr    3 of   20 Time  14:22:18
  Original Simulation        2  23  2005 Yr    3 of   20 Time  14:22:19
  Original Simulation        2  24  2005 Yr    3 of   20 Time  14:22:19
  Original Simulation        2  25  2005 Yr    3 of   20 Time  14:22:20
  Original Simulation        2  26  2005 Yr    3 of   20 Time  14:22:20
  Original Simulation        2  27  2005 Yr    3 of   20 Time  14:22:21
  Original Simulation        2  28  2005 Yr    3 of   20 Time  14:22:21
  Original Simulation        3   1  2005 Yr    3 of   20 Time  14:22:22
  Original Simulation        3   2  2005 Yr    3 of   20 Time  14:22:22
  Original Simulation        3   3  2005 Yr    3 of   20 Time  14:22:22
  Original Simulation        3   4  2005 Yr    3 of   20 Time  14:22:23
  Original Simulation        3   5  2005 Yr    3 of   20 Time  14:22:23
  Original Simulation        3   6  2005 Yr    3 of   20 Time  14:22:24
  Original Simulation        3   7  2005 Yr    3 of   20 Time  14:22:24
  Original Simulation        3   8  2005 Yr    3 of   20 Time  14:22:25
  Original Simulation        3   9  2005 Yr    3 of   20 Time  14:22:25
  Original Simulation        3  10  2005 Yr    3 of   20 Time  14:22:25
  Original Simulation        3  11  2005 Yr    3 of   20 Time  14:22:26
  Original Simulation        3  12  2005 Yr    3 of   20 Time  14:22:26
  Original Simulation        3  13  2005 Yr    3 of   20 Time  14:22:27
  Original Simulation        3  14  2005 Yr    3 of   20 Time  14:22:27
  Original Simulation        3  15  2005 Yr    3 of   20 Time  14:22:28
  Original Simulation        3  16  2005 Yr    3 of   20 Time  14:22:28
  Original Simulation        3  17  2005 Yr    3 of   20 Time  14:22:29
  Original Simulation        3  18  2005 Yr    3 of   20 Time  14:22:29
  Original Simulation        3  19  2005 Yr    3 of   20 Time  14:22:30
  Original Simulation        3  20  2005 Yr    3 of   20 Time  14:22:30
  Original Simulation        3  21  2005 Yr    3 of   20 Time  14:22:31
  Original Simulation        3  22  2005 Yr    3 of   20 Time  14:22:31
  Original Simulation        3  23  2005 Yr    3 of   20 Time  14:22:32
  Original Simulation        3  24  2005 Yr    3 of   20 Time  14:22:32
  Original Simulation        3  25  2005 Yr    3 of   20 Time  14:22:33
  Original Simulation        3  26  2005 Yr    3 of   20 Time  14:22:33
  Original Simulation        3  27  2005 Yr    3 of   20 Time  14:22:34
  Original Simulation        3  28  2005 Yr    3 of   20 Time  14:22:34
  Original Simulation        3  29  2005 Yr    3 of   20 Time  14:22:35
  Original Simulation        3  30  2005 Yr    3 of   20 Time  14:22:35
  Original Simulation        3  31  2005 Yr    3 of   20 Time  14:22:36
  Original Simulation        4   1  2005 Yr    3 of   20 Time  14:22:36
  Original Simulation        4   2  2005 Yr    3 of   20 Time  14:22:37
  Original Simulation        4   3  2005 Yr    3 of   20 Time  14:22:37
  Original Simulation        4   4  2005 Yr    3 of   20 Time  14:22:37
  Original Simulation        4   5  2005 Yr    3 of   20 Time  14:22:38
  Original Simulation        4   6  2005 Yr    3 of   20 Time  14:22:39
  Original Simulation        4   7  2005 Yr    3 of   20 Time  14:22:39
  Original Simulation        4   8  2005 Yr    3 of   20 Time  14:22:40
  Original Simulation        4   9  2005 Yr    3 of   20 Time  14:22:40
  Original Simulation        4  10  2005 Yr    3 of   20 Time  14:22:41
  Original Simulation        4  11  2005 Yr    3 of   20 Time  14:22:41
  Original Simulation        4  12  2005 Yr    3 of   20 Time  14:22:42
  Original Simulation        4  13  2005 Yr    3 of   20 Time  14:22:42
  Original Simulation        4  14  2005 Yr    3 of   20 Time  14:22:43
  Original Simulation        4  15  2005 Yr    3 of   20 Time  14:22:43
  Original Simulation        4  16  2005 Yr    3 of   20 Time  14:22:44
  Original Simulation        4  17  2005 Yr    3 of   20 Time  14:22:44
  Original Simulation        4  18  2005 Yr    3 of   20 Time  14:22:45
  Original Simulation        4  19  2005 Yr    3 of   20 Time  14:22:45
  Original Simulation        4  20  2005 Yr    3 of   20 Time  14:22:46
  Original Simulation        4  21  2005 Yr    3 of   20 Time  14:22:46
  Original Simulation        4  22  2005 Yr    3 of   20 Time  14:22:46
  Original Simulation        4  23  2005 Yr    3 of   20 Time  14:22:47
  Original Simulation        4  24  2005 Yr    3 of   20 Time  14:22:48
  Original Simulation        4  25  2005 Yr    3 of   20 Time  14:22:48
  Original Simulation        4  26  2005 Yr    3 of   20 Time  14:22:48
  Original Simulation        4  27  2005 Yr    3 of   20 Time  14:22:49
  Original Simulation        4  28  2005 Yr    3 of   20 Time  14:22:49
  Original Simulation        4  29  2005 Yr    3 of   20 Time  14:22:50
  Original Simulation        4  30  2005 Yr    3 of   20 Time  14:22:50
  Original Simulation        5   1  2005 Yr    3 of   20 Time  14:22:51
  Original Simulation        5   2  2005 Yr    3 of   20 Time  14:22:51
  Original Simulation        5   3  2005 Yr    3 of   20 Time  14:22:52
  Original Simulation        5   4  2005 Yr    3 of   20 Time  14:22:52
  Original Simulation        5   5  2005 Yr    3 of   20 Time  14:22:53
  Original Simulation        5   6  2005 Yr    3 of   20 Time  14:22:53
  Original Simulation        5   7  2005 Yr    3 of   20 Time  14:22:54
  Original Simulation        5   8  2005 Yr    3 of   20 Time  14:22:54
  Original Simulation        5   9  2005 Yr    3 of   20 Time  14:22:55
  Original Simulation        5  10  2005 Yr    3 of   20 Time  14:22:55
  Original Simulation        5  11  2005 Yr    3 of   20 Time  14:22:55
  Original Simulation        5  12  2005 Yr    3 of   20 Time  14:22:56
  Original Simulation        5  13  2005 Yr    3 of   20 Time  14:22:56
  Original Simulation        5  14  2005 Yr    3 of   20 Time  14:22:57
  Original Simulation        5  15  2005 Yr    3 of   20 Time  14:22:57
  Original Simulation        5  16  2005 Yr    3 of   20 Time  14:22:58
  Original Simulation        5  17  2005 Yr    3 of   20 Time  14:22:58
  Original Simulation        5  18  2005 Yr    3 of   20 Time  14:22:59
  Original Simulation        5  19  2005 Yr    3 of   20 Time  14:22:59
  Original Simulation        5  20  2005 Yr    3 of   20 Time  14:23: 0
  Original Simulation        5  21  2005 Yr    3 of   20 Time  14:23: 0
  Original Simulation        5  22  2005 Yr    3 of   20 Time  14:23: 1
  Original Simulation        5  23  2005 Yr    3 of   20 Time  14:23: 1
  Original Simulation        5  24  2005 Yr    3 of   20 Time  14:23: 2
  Original Simulation        5  25  2005 Yr    3 of   20 Time  14:23: 3
  Original Simulation        5  26  2005 Yr    3 of   20 Time  14:23: 3
  Original Simulation        5  27  2005 Yr    3 of   20 Time  14:23: 4
  Original Simulation        5  28  2005 Yr    3 of   20 Time  14:23: 4
  Original Simulation        5  29  2005 Yr    3 of   20 Time  14:23: 5
  Original Simulation        5  30  2005 Yr    3 of   20 Time  14:23: 5
  Original Simulation        5  31  2005 Yr    3 of   20 Time  14:23: 6
  Original Simulation        6   1  2005 Yr    3 of   20 Time  14:23: 6
  Original Simulation        6   2  2005 Yr    3 of   20 Time  14:23: 7
  Original Simulation        6   3  2005 Yr    3 of   20 Time  14:23: 7
  Original Simulation        6   4  2005 Yr    3 of   20 Time  14:23: 8
  Original Simulation        6   5  2005 Yr    3 of   20 Time  14:23: 8
  Original Simulation        6   6  2005 Yr    3 of   20 Time  14:23: 9
  Original Simulation        6   7  2005 Yr    3 of   20 Time  14:23: 9
  Original Simulation        6   8  2005 Yr    3 of   20 Time  14:23:10
  Original Simulation        6   9  2005 Yr    3 of   20 Time  14:23:10
  Original Simulation        6  10  2005 Yr    3 of   20 Time  14:23:11
  Original Simulation        6  11  2005 Yr    3 of   20 Time  14:23:11
  Original Simulation        6  12  2005 Yr    3 of   20 Time  14:23:11
  Original Simulation        6  13  2005 Yr    3 of   20 Time  14:23:12
  Original Simulation        6  14  2005 Yr    3 of   20 Time  14:23:12
  Original Simulation        6  15  2005 Yr    3 of   20 Time  14:23:13
  Original Simulation        6  16  2005 Yr    3 of   20 Time  14:23:14
  Original Simulation        6  17  2005 Yr    3 of   20 Time  14:23:14
  Original Simulation        6  18  2005 Yr    3 of   20 Time  14:23:14
  Original Simulation        6  19  2005 Yr    3 of   20 Time  14:23:15
  Original Simulation        6  20  2005 Yr    3 of   20 Time  14:23:15
  Original Simulation        6  21  2005 Yr    3 of   20 Time  14:23:16
  Original Simulation        6  22  2005 Yr    3 of   20 Time  14:23:17
  Original Simulation        6  23  2005 Yr    3 of   20 Time  14:23:17
  Original Simulation        6  24  2005 Yr    3 of   20 Time  14:23:17
  Original Simulation        6  25  2005 Yr    3 of   20 Time  14:23:18
  Original Simulation        6  26  2005 Yr    3 of   20 Time  14:23:18
  Original Simulation        6  27  2005 Yr    3 of   20 Time  14:23:19
  Original Simulation        6  28  2005 Yr    3 of   20 Time  14:23:19
  Original Simulation        6  29  2005 Yr    3 of   20 Time  14:23:20
  Original Simulation        6  30  2005 Yr    3 of   20 Time  14:23:21
  Original Simulation        7   1  2005 Yr    3 of   20 Time  14:23:21
  Original Simulation        7   2  2005 Yr    3 of   20 Time  14:23:22
  Original Simulation        7   3  2005 Yr    3 of   20 Time  14:23:22
  Original Simulation        7   4  2005 Yr    3 of   20 Time  14:23:23
  Original Simulation        7   5  2005 Yr    3 of   20 Time  14:23:23
  Original Simulation        7   6  2005 Yr    3 of   20 Time  14:23:24
  Original Simulation        7   7  2005 Yr    3 of   20 Time  14:23:24
  Original Simulation        7   8  2005 Yr    3 of   20 Time  14:23:25
  Original Simulation        7   9  2005 Yr    3 of   20 Time  14:23:25
  Original Simulation        7  10  2005 Yr    3 of   20 Time  14:23:26
  Original Simulation        7  11  2005 Yr    3 of   20 Time  14:23:26
  Original Simulation        7  12  2005 Yr    3 of   20 Time  14:23:27
  Original Simulation        7  13  2005 Yr    3 of   20 Time  14:23:27
  Original Simulation        7  14  2005 Yr    3 of   20 Time  14:23:27
  Original Simulation        7  15  2005 Yr    3 of   20 Time  14:23:28
  Original Simulation        7  16  2005 Yr    3 of   20 Time  14:23:28
  Original Simulation        7  17  2005 Yr    3 of   20 Time  14:23:29
  Original Simulation        7  18  2005 Yr    3 of   20 Time  14:23:29
  Original Simulation        7  19  2005 Yr    3 of   20 Time  14:23:30
  Original Simulation        7  20  2005 Yr    3 of   20 Time  14:23:30
  Original Simulation        7  21  2005 Yr    3 of   20 Time  14:23:31
  Original Simulation        7  22  2005 Yr    3 of   20 Time  14:23:31
  Original Simulation        7  23  2005 Yr    3 of   20 Time  14:23:32
  Original Simulation        7  24  2005 Yr    3 of   20 Time  14:23:33
  Original Simulation        7  25  2005 Yr    3 of   20 Time  14:23:33
  Original Simulation        7  26  2005 Yr    3 of   20 Time  14:23:34
  Original Simulation        7  27  2005 Yr    3 of   20 Time  14:23:34
  Original Simulation        7  28  2005 Yr    3 of   20 Time  14:23:35
  Original Simulation        7  29  2005 Yr    3 of   20 Time  14:23:35
  Original Simulation        7  30  2005 Yr    3 of   20 Time  14:23:35
  Original Simulation        7  31  2005 Yr    3 of   20 Time  14:23:36
  Original Simulation        8   1  2005 Yr    3 of   20 Time  14:23:36
  Original Simulation        8   2  2005 Yr    3 of   20 Time  14:23:37
  Original Simulation        8   3  2005 Yr    3 of   20 Time  14:23:37
  Original Simulation        8   4  2005 Yr    3 of   20 Time  14:23:38
  Original Simulation        8   5  2005 Yr    3 of   20 Time  14:23:38
  Original Simulation        8   6  2005 Yr    3 of   20 Time  14:23:39
  Original Simulation        8   7  2005 Yr    3 of   20 Time  14:23:39
  Original Simulation        8   8  2005 Yr    3 of   20 Time  14:23:40
  Original Simulation        8   9  2005 Yr    3 of   20 Time  14:23:40
  Original Simulation        8  10  2005 Yr    3 of   20 Time  14:23:41
  Original Simulation        8  11  2005 Yr    3 of   20 Time  14:23:41
  Original Simulation        8  12  2005 Yr    3 of   20 Time  14:23:42
  Original Simulation        8  13  2005 Yr    3 of   20 Time  14:23:42
  Original Simulation        8  14  2005 Yr    3 of   20 Time  14:23:43
  Original Simulation        8  15  2005 Yr    3 of   20 Time  14:23:43
  Original Simulation        8  16  2005 Yr    3 of   20 Time  14:23:44
  Original Simulation        8  17  2005 Yr    3 of   20 Time  14:23:44
  Original Simulation        8  18  2005 Yr    3 of   20 Time  14:23:45
  Original Simulation        8  19  2005 Yr    3 of   20 Time  14:23:45
  Original Simulation        8  20  2005 Yr    3 of   20 Time  14:23:45
  Original Simulation        8  21  2005 Yr    3 of   20 Time  14:23:46
  Original Simulation        8  22  2005 Yr    3 of   20 Time  14:23:46
  Original Simulation        8  23  2005 Yr    3 of   20 Time  14:23:47
  Original Simulation        8  24  2005 Yr    3 of   20 Time  14:23:47
  Original Simulation        8  25  2005 Yr    3 of   20 Time  14:23:48
  Original Simulation        8  26  2005 Yr    3 of   20 Time  14:23:48
  Original Simulation        8  27  2005 Yr    3 of   20 Time  14:23:49
  Original Simulation        8  28  2005 Yr    3 of   20 Time  14:23:49
  Original Simulation        8  29  2005 Yr    3 of   20 Time  14:23:50
  Original Simulation        8  30  2005 Yr    3 of   20 Time  14:23:50
  Original Simulation        8  31  2005 Yr    3 of   20 Time  14:23:51
  Original Simulation        9   1  2005 Yr    3 of   20 Time  14:23:51
  Original Simulation        9   2  2005 Yr    3 of   20 Time  14:23:52
  Original Simulation        9   3  2005 Yr    3 of   20 Time  14:23:52
  Original Simulation        9   4  2005 Yr    3 of   20 Time  14:23:53
  Original Simulation        9   5  2005 Yr    3 of   20 Time  14:23:53
  Original Simulation        9   6  2005 Yr    3 of   20 Time  14:23:54
  Original Simulation        9   7  2005 Yr    3 of   20 Time  14:23:54
  Original Simulation        9   8  2005 Yr    3 of   20 Time  14:23:54
  Original Simulation        9   9  2005 Yr    3 of   20 Time  14:23:55
  Original Simulation        9  10  2005 Yr    3 of   20 Time  14:23:55
  Original Simulation        9  11  2005 Yr    3 of   20 Time  14:23:56
  Original Simulation        9  12  2005 Yr    3 of   20 Time  14:23:56
  Original Simulation        9  13  2005 Yr    3 of   20 Time  14:23:57
  Original Simulation        9  14  2005 Yr    3 of   20 Time  14:23:57
  Original Simulation        9  15  2005 Yr    3 of   20 Time  14:23:58
  Original Simulation        9  16  2005 Yr    3 of   20 Time  14:23:58
  Original Simulation        9  17  2005 Yr    3 of   20 Time  14:23:59
  Original Simulation        9  18  2005 Yr    3 of   20 Time  14:23:59
  Original Simulation        9  19  2005 Yr    3 of   20 Time  14:24: 0
  Original Simulation        9  20  2005 Yr    3 of   20 Time  14:24: 0
  Original Simulation        9  21  2005 Yr    3 of   20 Time  14:24: 1
  Original Simulation        9  22  2005 Yr    3 of   20 Time  14:24: 1
  Original Simulation        9  23  2005 Yr    3 of   20 Time  14:24: 2
  Original Simulation        9  24  2005 Yr    3 of   20 Time  14:24: 2
  Original Simulation        9  25  2005 Yr    3 of   20 Time  14:24: 2
  Original Simulation        9  26  2005 Yr    3 of   20 Time  14:24: 3
  Original Simulation        9  27  2005 Yr    3 of   20 Time  14:24: 3
  Original Simulation        9  28  2005 Yr    3 of   20 Time  14:24: 4
  Original Simulation        9  29  2005 Yr    3 of   20 Time  14:24: 4
  Original Simulation        9  30  2005 Yr    3 of   20 Time  14:24: 4
  Original Simulation       10   1  2005 Yr    3 of   20 Time  14:24: 5
  Original Simulation       10   2  2005 Yr    3 of   20 Time  14:24: 5
  Original Simulation       10   3  2005 Yr    3 of   20 Time  14:24: 6
  Original Simulation       10   4  2005 Yr    3 of   20 Time  14:24: 6
  Original Simulation       10   5  2005 Yr    3 of   20 Time  14:24: 7
  Original Simulation       10   6  2005 Yr    3 of   20 Time  14:24: 7
  Original Simulation       10   7  2005 Yr    3 of   20 Time  14:24: 8
  Original Simulation       10   8  2005 Yr    3 of   20 Time  14:24: 8
  Original Simulation       10   9  2005 Yr    3 of   20 Time  14:24: 9
  Original Simulation       10  10  2005 Yr    3 of   20 Time  14:24: 9
  Original Simulation       10  11  2005 Yr    3 of   20 Time  14:24: 9
  Original Simulation       10  12  2005 Yr    3 of   20 Time  14:24:10
  Original Simulation       10  13  2005 Yr    3 of   20 Time  14:24:10
  Original Simulation       10  14  2005 Yr    3 of   20 Time  14:24:11
  Original Simulation       10  15  2005 Yr    3 of   20 Time  14:24:11
  Original Simulation       10  16  2005 Yr    3 of   20 Time  14:24:11
  Original Simulation       10  17  2005 Yr    3 of   20 Time  14:24:12
  Original Simulation       10  18  2005 Yr    3 of   20 Time  14:24:12
  Original Simulation       10  19  2005 Yr    3 of   20 Time  14:24:13
  Original Simulation       10  20  2005 Yr    3 of   20 Time  14:24:13
  Original Simulation       10  21  2005 Yr    3 of   20 Time  14:24:13
  Original Simulation       10  22  2005 Yr    3 of   20 Time  14:24:14
  Original Simulation       10  23  2005 Yr    3 of   20 Time  14:24:14
  Original Simulation       10  24  2005 Yr    3 of   20 Time  14:24:15
  Original Simulation       10  25  2005 Yr    3 of   20 Time  14:24:15
  Original Simulation       10  26  2005 Yr    3 of   20 Time  14:24:16
  Original Simulation       10  27  2005 Yr    3 of   20 Time  14:24:16
  Original Simulation       10  28  2005 Yr    3 of   20 Time  14:24:17
  Original Simulation       10  29  2005 Yr    3 of   20 Time  14:24:17
  Original Simulation       10  30  2005 Yr    3 of   20 Time  14:24:18
  Original Simulation       10  31  2005 Yr    3 of   20 Time  14:24:18
  Original Simulation       11   1  2005 Yr    3 of   20 Time  14:24:18
  Original Simulation       11   2  2005 Yr    3 of   20 Time  14:24:19
  Original Simulation       11   3  2005 Yr    3 of   20 Time  14:24:19
  Original Simulation       11   4  2005 Yr    3 of   20 Time  14:24:20
  Original Simulation       11   5  2005 Yr    3 of   20 Time  14:24:20
  Original Simulation       11   6  2005 Yr    3 of   20 Time  14:24:21
  Original Simulation       11   7  2005 Yr    3 of   20 Time  14:24:21
  Original Simulation       11   8  2005 Yr    3 of   20 Time  14:24:22
  Original Simulation       11   9  2005 Yr    3 of   20 Time  14:24:22
  Original Simulation       11  10  2005 Yr    3 of   20 Time  14:24:22
  Original Simulation       11  11  2005 Yr    3 of   20 Time  14:24:23
  Original Simulation       11  12  2005 Yr    3 of   20 Time  14:24:23
  Original Simulation       11  13  2005 Yr    3 of   20 Time  14:24:24
  Original Simulation       11  14  2005 Yr    3 of   20 Time  14:24:24
  Original Simulation       11  15  2005 Yr    3 of   20 Time  14:24:25
  Original Simulation       11  16  2005 Yr    3 of   20 Time  14:24:25
  Original Simulation       11  17  2005 Yr    3 of   20 Time  14:24:26
  Original Simulation       11  18  2005 Yr    3 of   20 Time  14:24:26
  Original Simulation       11  19  2005 Yr    3 of   20 Time  14:24:26
  Original Simulation       11  20  2005 Yr    3 of   20 Time  14:24:27
  Original Simulation       11  21  2005 Yr    3 of   20 Time  14:24:27
  Original Simulation       11  22  2005 Yr    3 of   20 Time  14:24:28
  Original Simulation       11  23  2005 Yr    3 of   20 Time  14:24:28
  Original Simulation       11  24  2005 Yr    3 of   20 Time  14:24:29
  Original Simulation       11  25  2005 Yr    3 of   20 Time  14:24:29
  Original Simulation       11  26  2005 Yr    3 of   20 Time  14:24:30
  Original Simulation       11  27  2005 Yr    3 of   20 Time  14:24:30
  Original Simulation       11  28  2005 Yr    3 of   20 Time  14:24:30
  Original Simulation       11  29  2005 Yr    3 of   20 Time  14:24:31
  Original Simulation       11  30  2005 Yr    3 of   20 Time  14:24:31
  Original Simulation       12   1  2005 Yr    3 of   20 Time  14:24:32
  Original Simulation       12   2  2005 Yr    3 of   20 Time  14:24:32
  Original Simulation       12   3  2005 Yr    3 of   20 Time  14:24:33
  Original Simulation       12   4  2005 Yr    3 of   20 Time  14:24:33
  Original Simulation       12   5  2005 Yr    3 of   20 Time  14:24:33
  Original Simulation       12   6  2005 Yr    3 of   20 Time  14:24:34
  Original Simulation       12   7  2005 Yr    3 of   20 Time  14:24:34
  Original Simulation       12   8  2005 Yr    3 of   20 Time  14:24:35
  Original Simulation       12   9  2005 Yr    3 of   20 Time  14:24:35
  Original Simulation       12  10  2005 Yr    3 of   20 Time  14:24:36
  Original Simulation       12  11  2005 Yr    3 of   20 Time  14:24:36
  Original Simulation       12  12  2005 Yr    3 of   20 Time  14:24:36
  Original Simulation       12  13  2005 Yr    3 of   20 Time  14:24:37
  Original Simulation       12  14  2005 Yr    3 of   20 Time  14:24:37
  Original Simulation       12  15  2005 Yr    3 of   20 Time  14:24:37
  Original Simulation       12  16  2005 Yr    3 of   20 Time  14:24:38
  Original Simulation       12  17  2005 Yr    3 of   20 Time  14:24:38
  Original Simulation       12  18  2005 Yr    3 of   20 Time  14:24:39
  Original Simulation       12  19  2005 Yr    3 of   20 Time  14:24:39
  Original Simulation       12  20  2005 Yr    3 of   20 Time  14:24:40
  Original Simulation       12  21  2005 Yr    3 of   20 Time  14:24:40
  Original Simulation       12  22  2005 Yr    3 of   20 Time  14:24:40
  Original Simulation       12  23  2005 Yr    3 of   20 Time  14:24:41
  Original Simulation       12  24  2005 Yr    3 of   20 Time  14:24:41
  Original Simulation       12  25  2005 Yr    3 of   20 Time  14:24:42
  Original Simulation       12  26  2005 Yr    3 of   20 Time  14:24:42
  Original Simulation       12  27  2005 Yr    3 of   20 Time  14:24:42
  Original Simulation       12  28  2005 Yr    3 of   20 Time  14:24:43
  Original Simulation       12  29  2005 Yr    3 of   20 Time  14:24:43
  Original Simulation       12  30  2005 Yr    3 of   20 Time  14:24:44
  Original Simulation       12  31  2005 Yr    3 of   20 Time  14:24:44
  Original Simulation        1   1  2006 Yr    4 of   20 Time  14:24:45
  Original Simulation        1   2  2006 Yr    4 of   20 Time  14:24:45
  Original Simulation        1   3  2006 Yr    4 of   20 Time  14:24:46
  Original Simulation        1   4  2006 Yr    4 of   20 Time  14:24:46
  Original Simulation        1   5  2006 Yr    4 of   20 Time  14:24:46
  Original Simulation        1   6  2006 Yr    4 of   20 Time  14:24:47
[...]
  Original Simulation        3  31  2022 Yr   20 of   20 Time  15: 0:12
  Original Simulation        4   1  2022 Yr   20 of   20 Time  15: 0:12
  Original Simulation        4   2  2022 Yr   20 of   20 Time  15: 0:13
  Original Simulation        4   3  2022 Yr   20 of   20 Time  15: 0:13
  Original Simulation        4   4  2022 Yr   20 of   20 Time  15: 0:13
  Original Simulation        4   5  2022 Yr   20 of   20 Time  15: 0:14
  Original Simulation        4   6  2022 Yr   20 of   20 Time  15: 0:14
  Original Simulation        4   7  2022 Yr   20 of   20 Time  15: 0:15
  Original Simulation        4   8  2022 Yr   20 of   20 Time  15: 0:15
  Original Simulation        4   9  2022 Yr   20 of   20 Time  15: 0:15
  Original Simulation        4  10  2022 Yr   20 of   20 Time  15: 0:16
  Original Simulation        4  11  2022 Yr   20 of   20 Time  15: 0:16
  Original Simulation        4  12  2022 Yr   20 of   20 Time  15: 0:16
  Original Simulation        4  13  2022 Yr   20 of   20 Time  15: 0:17
  Original Simulation        4  14  2022 Yr   20 of   20 Time  15: 0:17
  Original Simulation        4  15  2022 Yr   20 of   20 Time  15: 0:17
  Original Simulation        4  16  2022 Yr   20 of   20 Time  15: 0:18
  Original Simulation        4  17  2022 Yr   20 of   20 Time  15: 0:18
  Original Simulation        4  18  2022 Yr   20 of   20 Time  15: 0:18
  Original Simulation        4  19  2022 Yr   20 of   20 Time  15: 0:19
  Original Simulation        4  20  2022 Yr   20 of   20 Time  15: 0:19
  Original Simulation        4  21  2022 Yr   20 of   20 Time  15: 0:19
  Original Simulation        4  22  2022 Yr   20 of   20 Time  15: 0:20
  Original Simulation        4  23  2022 Yr   20 of   20 Time  15: 0:20
  Original Simulation        4  24  2022 Yr   20 of   20 Time  15: 0:20
  Original Simulation        4  25  2022 Yr   20 of   20 Time  15: 0:21
  Original Simulation        4  26  2022 Yr   20 of   20 Time  15: 0:21
  Original Simulation        4  27  2022 Yr   20 of   20 Time  15: 0:22
  Original Simulation        4  28  2022 Yr   20 of   20 Time  15: 0:22
  Original Simulation        4  29  2022 Yr   20 of   20 Time  15: 0:22
  Original Simulation        4  30  2022 Yr   20 of   20 Time  15: 0:23
  Original Simulation        5   1  2022 Yr   20 of   20 Time  15: 0:23
  Original Simulation        5   2  2022 Yr   20 of   20 Time  15: 0:23
  Original Simulation        5   3  2022 Yr   20 of   20 Time  15: 0:24
  Original Simulation        5   4  2022 Yr   20 of   20 Time  15: 0:24
  Original Simulation        5   5  2022 Yr   20 of   20 Time  15: 0:24
  Original Simulation        5   6  2022 Yr   20 of   20 Time  15: 0:25
  Original Simulation        5   7  2022 Yr   20 of   20 Time  15: 0:25
  Original Simulation        5   8  2022 Yr   20 of   20 Time  15: 0:25
  Original Simulation        5   9  2022 Yr   20 of   20 Time  15: 0:26
  Original Simulation        5  10  2022 Yr   20 of   20 Time  15: 0:26
  Original Simulation        5  11  2022 Yr   20 of   20 Time  15: 0:26
  Original Simulation        5  12  2022 Yr   20 of   20 Time  15: 0:27
  Original Simulation        5  13  2022 Yr   20 of   20 Time  15: 0:27
  Original Simulation        5  14  2022 Yr   20 of   20 Time  15: 0:27
  Original Simulation        5  15  2022 Yr   20 of   20 Time  15: 0:28
  Original Simulation        5  16  2022 Yr   20 of   20 Time  15: 0:28
  Original Simulation        5  17  2022 Yr   20 of   20 Time  15: 0:29
  Original Simulation        5  18  2022 Yr   20 of   20 Time  15: 0:29
  Original Simulation        5  19  2022 Yr   20 of   20 Time  15: 0:29
  Original Simulation        5  20  2022 Yr   20 of   20 Time  15: 0:30
  Original Simulation        5  21  2022 Yr   20 of   20 Time  15: 0:30
  Original Simulation        5  22  2022 Yr   20 of   20 Time  15: 0:30
  Original Simulation        5  23  2022 Yr   20 of   20 Time  15: 0:31
  Original Simulation        5  24  2022 Yr   20 of   20 Time  15: 0:31
  Original Simulation        5  25  2022 Yr   20 of   20 Time  15: 0:31
  Original Simulation        5  26  2022 Yr   20 of   20 Time  15: 0:32
  Original Simulation        5  27  2022 Yr   20 of   20 Time  15: 0:32
  Original Simulation        5  28  2022 Yr   20 of   20 Time  15: 0:32
  Original Simulation        5  29  2022 Yr   20 of   20 Time  15: 0:33
  Original Simulation        5  30  2022 Yr   20 of   20 Time  15: 0:33
  Original Simulation        5  31  2022 Yr   20 of   20 Time  15: 0:34
  Original Simulation        6   1  2022 Yr   20 of   20 Time  15: 0:34
  Original Simulation        6   2  2022 Yr   20 of   20 Time  15: 0:34
  Original Simulation        6   3  2022 Yr   20 of   20 Time  15: 0:35
  Original Simulation        6   4  2022 Yr   20 of   20 Time  15: 0:35
  Original Simulation        6   5  2022 Yr   20 of   20 Time  15: 0:35
  Original Simulation        6   6  2022 Yr   20 of   20 Time  15: 0:36
  Original Simulation        6   7  2022 Yr   20 of   20 Time  15: 0:36
  Original Simulation        6   8  2022 Yr   20 of   20 Time  15: 0:36
  Original Simulation        6   9  2022 Yr   20 of   20 Time  15: 0:37
  Original Simulation        6  10  2022 Yr   20 of   20 Time  15: 0:37
  Original Simulation        6  11  2022 Yr   20 of   20 Time  15: 0:37
  Original Simulation        6  12  2022 Yr   20 of   20 Time  15: 0:38
  Original Simulation        6  13  2022 Yr   20 of   20 Time  15: 0:38
  Original Simulation        6  14  2022 Yr   20 of   20 Time  15: 0:38
  Original Simulation        6  15  2022 Yr   20 of   20 Time  15: 0:39
  Original Simulation        6  16  2022 Yr   20 of   20 Time  15: 0:39
  Original Simulation        6  17  2022 Yr   20 of   20 Time  15: 0:39
  Original Simulation        6  18  2022 Yr   20 of   20 Time  15: 0:40
  Original Simulation        6  19  2022 Yr   20 of   20 Time  15: 0:40
  Original Simulation        6  20  2022 Yr   20 of   20 Time  15: 0:41
  Original Simulation        6  21  2022 Yr   20 of   20 Time  15: 0:41
  Original Simulation        6  22  2022 Yr   20 of   20 Time  15: 0:41
  Original Simulation        6  23  2022 Yr   20 of   20 Time  15: 0:42
  Original Simulation        6  24  2022 Yr   20 of   20 Time  15: 0:42
  Original Simulation        6  25  2022 Yr   20 of   20 Time  15: 0:42
  Original Simulation        6  26  2022 Yr   20 of   20 Time  15: 0:43
  Original Simulation        6  27  2022 Yr   20 of   20 Time  15: 0:43
  Original Simulation        6  28  2022 Yr   20 of   20 Time  15: 0:43
  Original Simulation        6  29  2022 Yr   20 of   20 Time  15: 0:44
  Original Simulation        6  30  2022 Yr   20 of   20 Time  15: 0:44
  Original Simulation        7   1  2022 Yr   20 of   20 Time  15: 0:44
  Original Simulation        7   2  2022 Yr   20 of   20 Time  15: 0:45
  Original Simulation        7   3  2022 Yr   20 of   20 Time  15: 0:45
  Original Simulation        7   4  2022 Yr   20 of   20 Time  15: 0:46
  Original Simulation        7   5  2022 Yr   20 of   20 Time  15: 0:46
  Original Simulation        7   6  2022 Yr   20 of   20 Time  15: 0:46
  Original Simulation        7   7  2022 Yr   20 of   20 Time  15: 0:47
  Original Simulation        7   8  2022 Yr   20 of   20 Time  15: 0:47
  Original Simulation        7   9  2022 Yr   20 of   20 Time  15: 0:47
  Original Simulation        7  10  2022 Yr   20 of   20 Time  15: 0:48
  Original Simulation        7  11  2022 Yr   20 of   20 Time  15: 0:48
  Original Simulation        7  12  2022 Yr   20 of   20 Time  15: 0:48
  Original Simulation        7  13  2022 Yr   20 of   20 Time  15: 0:49
  Original Simulation        7  14  2022 Yr   20 of   20 Time  15: 0:49
  Original Simulation        7  15  2022 Yr   20 of   20 Time  15: 0:49
  Original Simulation        7  16  2022 Yr   20 of   20 Time  15: 0:50
  Original Simulation        7  17  2022 Yr   20 of   20 Time  15: 0:50
  Original Simulation        7  18  2022 Yr   20 of   20 Time  15: 0:50
  Original Simulation        7  19  2022 Yr   20 of   20 Time  15: 0:51
  Original Simulation        7  20  2022 Yr   20 of   20 Time  15: 0:51
  Original Simulation        7  21  2022 Yr   20 of   20 Time  15: 0:52
  Original Simulation        7  22  2022 Yr   20 of   20 Time  15: 0:52
  Original Simulation        7  23  2022 Yr   20 of   20 Time  15: 0:52
  Original Simulation        7  24  2022 Yr   20 of   20 Time  15: 0:53
  Original Simulation        7  25  2022 Yr   20 of   20 Time  15: 0:53
  Original Simulation        7  26  2022 Yr   20 of   20 Time  15: 0:53
  Original Simulation        7  27  2022 Yr   20 of   20 Time  15: 0:54
  Original Simulation        7  28  2022 Yr   20 of   20 Time  15: 0:54
  Original Simulation        7  29  2022 Yr   20 of   20 Time  15: 0:54
  Original Simulation        7  30  2022 Yr   20 of   20 Time  15: 0:55
  Original Simulation        7  31  2022 Yr   20 of   20 Time  15: 0:55
  Original Simulation        8   1  2022 Yr   20 of   20 Time  15: 0:55
  Original Simulation        8   2  2022 Yr   20 of   20 Time  15: 0:56
  Original Simulation        8   3  2022 Yr   20 of   20 Time  15: 0:56
  Original Simulation        8   4  2022 Yr   20 of   20 Time  15: 0:56
  Original Simulation        8   5  2022 Yr   20 of   20 Time  15: 0:57
  Original Simulation        8   6  2022 Yr   20 of   20 Time  15: 0:57
  Original Simulation        8   7  2022 Yr   20 of   20 Time  15: 0:57
  Original Simulation        8   8  2022 Yr   20 of   20 Time  15: 0:58
  Original Simulation        8   9  2022 Yr   20 of   20 Time  15: 0:58
  Original Simulation        8  10  2022 Yr   20 of   20 Time  15: 0:58
  Original Simulation        8  11  2022 Yr   20 of   20 Time  15: 0:59
  Original Simulation        8  12  2022 Yr   20 of   20 Time  15: 0:59
  Original Simulation        8  13  2022 Yr   20 of   20 Time  15: 0:59
  Original Simulation        8  14  2022 Yr   20 of   20 Time  15: 1: 0
  Original Simulation        8  15  2022 Yr   20 of   20 Time  15: 1: 0
  Original Simulation        8  16  2022 Yr   20 of   20 Time  15: 1: 1
  Original Simulation        8  17  2022 Yr   20 of   20 Time  15: 1: 1
  Original Simulation        8  18  2022 Yr   20 of   20 Time  15: 1: 1
  Original Simulation        8  19  2022 Yr   20 of   20 Time  15: 1: 2
  Original Simulation        8  20  2022 Yr   20 of   20 Time  15: 1: 2
  Original Simulation        8  21  2022 Yr   20 of   20 Time  15: 1: 2
  Original Simulation        8  22  2022 Yr   20 of   20 Time  15: 1: 3
  Original Simulation        8  23  2022 Yr   20 of   20 Time  15: 1: 3
  Original Simulation        8  24  2022 Yr   20 of   20 Time  15: 1: 3
  Original Simulation        8  25  2022 Yr   20 of   20 Time  15: 1: 4
  Original Simulation        8  26  2022 Yr   20 of   20 Time  15: 1: 4
  Original Simulation        8  27  2022 Yr   20 of   20 Time  15: 1: 4
  Original Simulation        8  28  2022 Yr   20 of   20 Time  15: 1: 5
  Original Simulation        8  29  2022 Yr   20 of   20 Time  15: 1: 5
  Original Simulation        8  30  2022 Yr   20 of   20 Time  15: 1: 5
  Original Simulation        8  31  2022 Yr   20 of   20 Time  15: 1: 6
  Original Simulation        9   1  2022 Yr   20 of   20 Time  15: 1: 6
  Original Simulation        9   2  2022 Yr   20 of   20 Time  15: 1: 6
  Original Simulation        9   3  2022 Yr   20 of   20 Time  15: 1: 7
  Original Simulation        9   4  2022 Yr   20 of   20 Time  15: 1: 7
  Original Simulation        9   5  2022 Yr   20 of   20 Time  15: 1: 7
  Original Simulation        9   6  2022 Yr   20 of   20 Time  15: 1: 8
  Original Simulation        9   7  2022 Yr   20 of   20 Time  15: 1: 8
  Original Simulation        9   8  2022 Yr   20 of   20 Time  15: 1: 8
  Original Simulation        9   9  2022 Yr   20 of   20 Time  15: 1: 9
  Original Simulation        9  10  2022 Yr   20 of   20 Time  15: 1: 9
  Original Simulation        9  11  2022 Yr   20 of   20 Time  15: 1: 9
  Original Simulation        9  12  2022 Yr   20 of   20 Time  15: 1:10
  Original Simulation        9  13  2022 Yr   20 of   20 Time  15: 1:10
  Original Simulation        9  14  2022 Yr   20 of   20 Time  15: 1:10
  Original Simulation        9  15  2022 Yr   20 of   20 Time  15: 1:11
  Original Simulation        9  16  2022 Yr   20 of   20 Time  15: 1:11
  Original Simulation        9  17  2022 Yr   20 of   20 Time  15: 1:12
  Original Simulation        9  18  2022 Yr   20 of   20 Time  15: 1:12
  Original Simulation        9  19  2022 Yr   20 of   20 Time  15: 1:12
  Original Simulation        9  20  2022 Yr   20 of   20 Time  15: 1:13
  Original Simulation        9  21  2022 Yr   20 of   20 Time  15: 1:13
  Original Simulation        9  22  2022 Yr   20 of   20 Time  15: 1:13
  Original Simulation        9  23  2022 Yr   20 of   20 Time  15: 1:14
  Original Simulation        9  24  2022 Yr   20 of   20 Time  15: 1:14
  Original Simulation        9  25  2022 Yr   20 of   20 Time  15: 1:14
  Original Simulation        9  26  2022 Yr   20 of   20 Time  15: 1:15
  Original Simulation        9  27  2022 Yr   20 of   20 Time  15: 1:15
  Original Simulation        9  28  2022 Yr   20 of   20 Time  15: 1:15
  Original Simulation        9  29  2022 Yr   20 of   20 Time  15: 1:16
  Original Simulation        9  30  2022 Yr   20 of   20 Time  15: 1:16
  Original Simulation       10   1  2022 Yr   20 of   20 Time  15: 1:16
  Original Simulation       10   2  2022 Yr   20 of   20 Time  15: 1:17
  Original Simulation       10   3  2022 Yr   20 of   20 Time  15: 1:17
  Original Simulation       10   4  2022 Yr   20 of   20 Time  15: 1:17
  Original Simulation       10   5  2022 Yr   20 of   20 Time  15: 1:18
  Original Simulation       10   6  2022 Yr   20 of   20 Time  15: 1:18
  Original Simulation       10   7  2022 Yr   20 of   20 Time  15: 1:18
  Original Simulation       10   8  2022 Yr   20 of   20 Time  15: 1:19
  Original Simulation       10   9  2022 Yr   20 of   20 Time  15: 1:19
  Original Simulation       10  10  2022 Yr   20 of   20 Time  15: 1:19
  Original Simulation       10  11  2022 Yr   20 of   20 Time  15: 1:20
  Original Simulation       10  12  2022 Yr   20 of   20 Time  15: 1:20
  Original Simulation       10  13  2022 Yr   20 of   20 Time  15: 1:20
  Original Simulation       10  14  2022 Yr   20 of   20 Time  15: 1:21
  Original Simulation       10  15  2022 Yr   20 of   20 Time  15: 1:21
  Original Simulation       10  16  2022 Yr   20 of   20 Time  15: 1:22
  Original Simulation       10  17  2022 Yr   20 of   20 Time  15: 1:22
  Original Simulation       10  18  2022 Yr   20 of   20 Time  15: 1:22
  Original Simulation       10  19  2022 Yr   20 of   20 Time  15: 1:23
  Original Simulation       10  20  2022 Yr   20 of   20 Time  15: 1:23
  Original Simulation       10  21  2022 Yr   20 of   20 Time  15: 1:23
  Original Simulation       10  22  2022 Yr   20 of   20 Time  15: 1:24
  Original Simulation       10  23  2022 Yr   20 of   20 Time  15: 1:24
  Original Simulation       10  24  2022 Yr   20 of   20 Time  15: 1:24
  Original Simulation       10  25  2022 Yr   20 of   20 Time  15: 1:25
  Original Simulation       10  26  2022 Yr   20 of   20 Time  15: 1:25
  Original Simulation       10  27  2022 Yr   20 of   20 Time  15: 1:25
  Original Simulation       10  28  2022 Yr   20 of   20 Time  15: 1:26
  Original Simulation       10  29  2022 Yr   20 of   20 Time  15: 1:26
  Original Simulation       10  30  2022 Yr   20 of   20 Time  15: 1:26
  Original Simulation       10  31  2022 Yr   20 of   20 Time  15: 1:27
  Original Simulation       11   1  2022 Yr   20 of   20 Time  15: 1:27
  Original Simulation       11   2  2022 Yr   20 of   20 Time  15: 1:27
  Original Simulation       11   3  2022 Yr   20 of   20 Time  15: 1:28
  Original Simulation       11   4  2022 Yr   20 of   20 Time  15: 1:28
  Original Simulation       11   5  2022 Yr   20 of   20 Time  15: 1:28
  Original Simulation       11   6  2022 Yr   20 of   20 Time  15: 1:29
  Original Simulation       11   7  2022 Yr   20 of   20 Time  15: 1:29
  Original Simulation       11   8  2022 Yr   20 of   20 Time  15: 1:29
  Original Simulation       11   9  2022 Yr   20 of   20 Time  15: 1:30
  Original Simulation       11  10  2022 Yr   20 of   20 Time  15: 1:30
  Original Simulation       11  11  2022 Yr   20 of   20 Time  15: 1:31
  Original Simulation       11  12  2022 Yr   20 of   20 Time  15: 1:31
  Original Simulation       11  13  2022 Yr   20 of   20 Time  15: 1:31
  Original Simulation       11  14  2022 Yr   20 of   20 Time  15: 1:32
  Original Simulation       11  15  2022 Yr   20 of   20 Time  15: 1:32
  Original Simulation       11  16  2022 Yr   20 of   20 Time  15: 1:32
  Original Simulation       11  17  2022 Yr   20 of   20 Time  15: 1:33
  Original Simulation       11  18  2022 Yr   20 of   20 Time  15: 1:33
  Original Simulation       11  19  2022 Yr   20 of   20 Time  15: 1:33
  Original Simulation       11  20  2022 Yr   20 of   20 Time  15: 1:34
  Original Simulation       11  21  2022 Yr   20 of   20 Time  15: 1:34
  Original Simulation       11  22  2022 Yr   20 of   20 Time  15: 1:34
  Original Simulation       11  23  2022 Yr   20 of   20 Time  15: 1:35
  Original Simulation       11  24  2022 Yr   20 of   20 Time  15: 1:35
  Original Simulation       11  25  2022 Yr   20 of   20 Time  15: 1:35
  Original Simulation       11  26  2022 Yr   20 of   20 Time  15: 1:36
  Original Simulation       11  27  2022 Yr   20 of   20 Time  15: 1:36
  Original Simulation       11  28  2022 Yr   20 of   20 Time  15: 1:36
  Original Simulation       11  29  2022 Yr   20 of   20 Time  15: 1:37
  Original Simulation       11  30  2022 Yr   20 of   20 Time  15: 1:37
  Original Simulation       12   1  2022 Yr   20 of   20 Time  15: 1:37
  Original Simulation       12   2  2022 Yr   20 of   20 Time  15: 1:38
  Original Simulation       12   3  2022 Yr   20 of   20 Time  15: 1:38
  Original Simulation       12   4  2022 Yr   20 of   20 Time  15: 1:38
  Original Simulation       12   5  2022 Yr   20 of   20 Time  15: 1:39
  Original Simulation       12   6  2022 Yr   20 of   20 Time  15: 1:39
  Original Simulation       12   7  2022 Yr   20 of   20 Time  15: 1:39
  Original Simulation       12   8  2022 Yr   20 of   20 Time  15: 1:40
  Original Simulation       12   9  2022 Yr   20 of   20 Time  15: 1:40
  Original Simulation       12  10  2022 Yr   20 of   20 Time  15: 1:40
  Original Simulation       12  11  2022 Yr   20 of   20 Time  15: 1:40
  Original Simulation       12  12  2022 Yr   20 of   20 Time  15: 1:41
  Original Simulation       12  13  2022 Yr   20 of   20 Time  15: 1:41
  Original Simulation       12  14  2022 Yr   20 of   20 Time  15: 1:41
  Original Simulation       12  15  2022 Yr   20 of   20 Time  15: 1:42
  Original Simulation       12  16  2022 Yr   20 of   20 Time  15: 1:42
  Original Simulation       12  17  2022 Yr   20 of   20 Time  15: 1:42
  Original Simulation       12  18  2022 Yr   20 of   20 Time  15: 1:43
  Original Simulation       12  19  2022 Yr   20 of   20 Time  15: 1:43
  Original Simulation       12  20  2022 Yr   20 of   20 Time  15: 1:43
  Original Simulation       12  21  2022 Yr   20 of   20 Time  15: 1:44
  Original Simulation       12  22  2022 Yr   20 of   20 Time  15: 1:44
  Original Simulation       12  23  2022 Yr   20 of   20 Time  15: 1:44
  Original Simulation       12  24  2022 Yr   20 of   20 Time  15: 1:45
  Original Simulation       12  25  2022 Yr   20 of   20 Time  15: 1:45
  Original Simulation       12  26  2022 Yr   20 of   20 Time  15: 1:45
  Original Simulation       12  27  2022 Yr   20 of   20 Time  15: 1:46
  Original Simulation       12  28  2022 Yr   20 of   20 Time  15: 1:46
  Original Simulation       12  29  2022 Yr   20 of   20 Time  15: 1:46
  Original Simulation       12  30  2022 Yr   20 of   20 Time  15: 1:47
  Original Simulation       12  31  2022 Yr   20 of   20 Time  15: 1:47

 Execution successfully completed 

  Date of Sim  11/ 5/2024 Time  15: 1:49
