recall.rec: written by SWAT+ editor v2.0.0 on 2022-02-14 13:07
26
    jday        mo    day_mo       iyr    ob_typ           ob_name           flo           sed         ptl_n         ptl_p         no3_n         sol_p          chla         nh3_n         no2_n       cbn_bod           oxy          sand          silt          clay        sm_agg        lg_agg        gravel           tmp  
       1         1         1      1994    recall           pt00009       0.00000       0.00000       0.00000       0.00000       0.00000       0.00000       0.00000       0.00000       0.00000       0.00000       0.00000       0.00000       0.00000       0.00000       0.00000       0.00000       0.00000       0.00000  
       2         2         1      1994    recall           pt00009       0.00000       0.00000       0.00000       0.00000       0.00000       0.00000       0.00000       0.00000       0.00000       0.00000       0.00000       0.00000       0.00000       0.00000       0.00000       0.00000       0.00000       0.00000  
       3         3         1      1994    recall           pt00009       0.00000       0.00000       0.00000       0.00000       0.00000       0.00000       0.00000       0.00000       0.00000       0.00000       0.00000       0.00000       0.00000       0.00000       0.00000       0.00000       0.00000       0.00000  
       4         4         1      1994    recall           pt00009       0.00000       0.00000       0.00000       0.00000       0.00000       0.00000       0.00000       0.00000       0.00000       0.00000       0.00000       0.00000       0.00000       0.00000       0.00000       0.00000       0.00000       0.00000  
       5         5         1      1994    recall           pt00009       0.00000       0.00000       0.00000       0.00000       0.00000       0.00000       0.00000       0.00000       0.00000       0.00000       0.00000       0.00000       0.00000       0.00000       0.00000       0.00000       0.00000       0.00000  
       6         6         1      1994    recall           pt00009       0.00000       0.00000       0.00000       0.00000       0.00000       0.00000       0.00000       0.00000       0.00000       0.00000       0.00000       0.00000       0.00000       0.00000       0.00000       0.00000       0.00000       0.00000  
       7         7         1      1994    recall           pt00009       0.00000       0.00000       0.00000       0.00000       0.00000       0.00000       0.00000       0.00000       0.00000       0.00000       0.00000       0.00000       0.00000       0.00000       0.00000       0.00000       0.00000       0.00000  
       8         8         1      1994    recall           pt00009       0.00000       0.00000       0.00000       0.00000       0.00000       0.00000       0.00000       0.00000       0.00000       0.00000       0.00000       0.00000       0.00000       0.00000       0.00000       0.00000       0.00000       0.00000  
       9         9         1      1994    recall           pt00009       0.00000       0.00000       0.00000       0.00000       0.00000       0.00000       0.00000       0.00000       0.00000       0.00000       0.00000       0.00000       0.00000       0.00000       0.00000       0.00000       0.00000       0.00000  
      10        10         1      1994    recall           pt00009       0.00000       0.00000       0.00000       0.00000       0.00000       0.00000       0.00000       0.00000       0.00000       0.00000       0.00000       0.00000       0.00000       0.00000       0.00000       0.00000       0.00000       0.00000  
      11        11         1      1994    recall           pt00009       0.00000       0.00000       0.00000       0.00000       0.00000       0.00000       0.00000       0.00000       0.00000       0.00000       0.00000       0.00000       0.00000       0.00000       0.00000       0.00000       0.00000       0.00000  
      12        12         1      1994    recall           pt00009       0.00000       0.00000       0.00000       0.00000       0.00000       0.00000       0.00000       0.00000       0.00000       0.00000       0.00000       0.00000       0.00000       0.00000       0.00000       0.00000       0.00000       0.00000  
       1         1         1      1995    recall           pt00009       0.00000       0.00000       0.00000       0.00000       0.00000       0.00000       0.00000       0.00000       0.00000       0.00000       0.00000       0.00000       0.00000       0.00000       0.00000       0.00000       0.00000       0.00000  
       2         2         1      1995    recall           pt00009       0.00000       0.00000       0.00000       0.00000       0.00000       0.00000       0.00000       0.00000       0.00000       0.00000       0.00000       0.00000       0.00000       0.00000       0.00000       0.00000       0.00000       0.00000  
       3         3         1      1995    recall           pt00009       0.00000       0.00000       0.00000       0.00000       0.00000       0.00000       0.00000       0.00000       0.00000       0.00000       0.00000       0.00000       0.00000       0.00000       0.00000       0.00000       0.00000       0.00000  
       4         4         1      1995    recall           pt00009       0.00000       0.00000       0.00000       0.00000       0.00000       0.00000       0.00000       0.00000       0.00000       0.00000       0.00000       0.00000       0.00000       0.00000       0.00000       0.00000       0.00000       0.00000  
       5         5         1      1995    recall           pt00009       0.00000       0.00000       0.00000       0.00000       0.00000       0.00000       0.00000       0.00000       0.00000       0.00000       0.00000       0.00000       0.00000       0.00000       0.00000       0.00000       0.00000       0.00000  
       6         6         1      1995    recall           pt00009       0.00000       0.00000       0.00000       0.00000       0.00000       0.00000       0.00000       0.00000       0.00000       0.00000       0.00000       0.00000       0.00000       0.00000       0.00000       0.00000       0.00000       0.00000  
       7         7         1      1995    recall           pt00009       0.00000       0.00000       0.00000       0.00000       0.00000       0.00000       0.00000       0.00000       0.00000       0.00000       0.00000       0.00000       0.00000       0.00000       0.00000       0.00000       0.00000       0.00000  
       8         8         1      1995    recall           pt00009       0.00000       0.00000       0.00000       0.00000       0.00000       0.00000       0.00000       0.00000       0.00000       0.00000       0.00000       0.00000       0.00000       0.00000       0.00000       0.00000       0.00000       0.00000  
       9         9         1      1995    recall           pt00009       0.00000       0.00000       0.00000       0.00000       0.00000       0.00000       0.00000       0.00000       0.00000       0.00000       0.00000       0.00000       0.00000       0.00000       0.00000       0.00000       0.00000       0.00000  
      10        10         1      1995    recall           pt00009       0.00000       0.00000       0.00000       0.00000       0.00000       0.00000       0.00000       0.00000       0.00000       0.00000       0.00000       0.00000       0.00000       0.00000       0.00000       0.00000       0.00000       0.00000  
      11        11         1      1995    recall           pt00009       0.00000       0.00000       0.00000       0.00000       0.00000       0.00000       0.00000       0.00000       0.00000       0.00000       0.00000       0.00000       0.00000       0.00000       0.00000       0.00000       0.00000       0.00000  
      12        12         1      1995    recall           pt00009       0.00000       0.00000       0.00000       0.00000       0.00000       0.00000       0.00000       0.00000       0.00000       0.00000       0.00000       0.00000       0.00000       0.00000       0.00000       0.00000       0.00000       0.00000  
       1         1         1      1996    recall           pt00009       0.00000       0.00000       0.00000       0.00000       0.00000       0.00000       0.00000       0.00000       0.00000       0.00000       0.00000       0.00000       0.00000       0.00000       0.00000       0.00000       0.00000       0.00000  
       2         2         1      1996    recall           pt00009       0.00000       0.00000       0.00000       0.00000       0.00000       0.00000       0.00000       0.00000       0.00000       0.00000       0.00000       0.00000       0.00000       0.00000       0.00000       0.00000       0.00000       0.00000  
       3         3         1      1996    recall           pt00009       0.00000       0.00000       0.00000       0.00000       0.00000       0.00000       0.00000       0.00000       0.00000       0.00000       0.00000       0.00000       0.00000       0.00000       0.00000       0.00000       0.00000       0.00000  
       4         4         1      1996    recall           pt00009       0.00000       0.00000       0.00000       0.00000       0.00000       0.00000       0.00000       0.00000       0.00000       0.00000       0.00000       0.00000       0.00000       0.00000       0.00000       0.00000       0.00000       0.00000  
       5         5         1      1996    recall           pt00009       0.00000       0.00000       0.00000       0.00000       0.00000       0.00000       0.00000       0.00000       0.00000       0.00000       0.00000       0.00000       0.00000       0.00000       0.00000       0.00000       0.00000       0.00000  
       6         6         1      1996    recall           pt00009       0.00000       0.00000       0.00000       0.00000       0.00000       0.00000       0.00000       0.00000       0.00000       0.00000       0.00000       0.00000       0.00000       0.00000       0.00000       0.00000       0.00000       0.00000  
       7         7         1      1996    recall           pt00009       0.00000       0.00000       0.00000       0.00000       0.00000       0.00000       0.00000       0.00000       0.00000       0.00000       0.00000       0.00000       0.00000       0.00000       0.00000       0.00000       0.00000       0.00000  
       8         8         1      1996    recall           pt00009       0.00000       0.00000       0.00000       0.00000       0.00000       0.00000       0.00000       0.00000       0.00000       0.00000       0.00000       0.00000       0.00000       0.00000       0.00000       0.00000       0.00000       0.00000  
       9         9         1      1996    recall           pt00009       0.00000       0.00000       0.00000       0.00000       0.00000       0.00000       0.00000       0.00000       0.00000       0.00000       0.00000       0.00000       0.00000       0.00000       0.00000       0.00000       0.00000       0.00000  
      10        10         1      1996    recall           pt00009       0.00000       0.00000       0.00000       0.00000       0.00000       0.00000       0.00000       0.00000       0.00000       0.00000       0.00000       0.00000       0.00000       0.00000       0.00000       0.00000       0.00000       0.00000  
      11        11         1      1996    recall           pt00009       0.00000       0.00000       0.00000       0.00000       0.00000       0.00000       0.00000       0.00000       0.00000       0.00000       0.00000       0.00000       0.00000       0.00000       0.00000       0.00000       0.00000       0.00000  
      12        12         1      1996    recall           pt00009       0.00000       0.00000       0.00000       0.00000       0.00000       0.00000       0.00000       0.00000       0.00000       0.00000       0.00000       0.00000       0.00000       0.00000       0.00000       0.00000       0.00000       0.00000  
       1         1         1      1997    recall           pt00009       0.00000       0.00000       0.00000       0.00000       0.00000       0.00000       0.00000       0.00000       0.00000       0.00000       0.00000       0.00000       0.00000       0.00000       0.00000       0.00000       0.00000       0.00000  
       2         2         1      1997    recall           pt00009       0.00000       0.00000       0.00000       0.00000       0.00000       0.00000       0.00000       0.00000       0.00000       0.00000       0.00000       0.00000       0.00000       0.00000       0.00000       0.00000       0.00000       0.00000  
       3         3         1      1997    recall           pt00009       0.00000       0.00000       0.00000       0.00000       0.00000       0.00000       0.00000       0.00000       0.00000       0.00000       0.00000       0.00000       0.00000       0.00000       0.00000       0.00000       0.00000       0.00000  
       4         4         1      1997    recall           pt00009       0.00000       0.00000       0.00000       0.00000       0.00000       0.00000       0.00000       0.00000       0.00000       0.00000       0.00000       0.00000       0.00000       0.00000       0.00000       0.00000       0.00000       0.00000  
       5         5         1      1997    recall           pt00009       0.00000       0.00000       0.00000       0.00000       0.00000       0.00000       0.00000       0.00000       0.00000       0.00000       0.00000       0.00000       0.00000       0.00000       0.00000       0.00000       0.00000       0.00000  
       6         6         1      1997    recall           pt00009       0.00000       0.00000       0.00000       0.00000       0.00000       0.00000       0.00000       0.00000       0.00000       0.00000       0.00000       0.00000       0.00000       0.00000       0.00000       0.00000       0.00000       0.00000  
       7         7         1      1997    recall           pt00009       0.00000       0.00000       0.00000       0.00000       0.00000       0.00000       0.00000       0.00000       0.00000       0.00000       0.00000       0.00000       0.00000       0.00000       0.00000       0.00000       0.00000       0.00000  
       8         8         1      1997    recall           pt00009       0.00000       0.00000       0.00000       0.00000       0.00000       0.00000       0.00000       0.00000       0.00000       0.00000       0.00000       0.00000       0.00000       0.00000       0.00000       0.00000       0.00000       0.00000  
       9         9         1      1997    recall           pt00009       0.00000       0.00000       0.00000       0.00000       0.00000       0.00000       0.00000       0.00000       0.00000       0.00000       0.00000       0.00000       0.00000       0.00000       0.00000       0.00000       0.00000       0.00000  
      10        10         1      1997    recall           pt00009       0.00000       0.00000       0.00000       0.00000       0.00000       0.00000       0.00000       0.00000       0.00000       0.00000       0.00000       0.00000       0.00000       0.00000       0.00000       0.00000       0.00000       0.00000  
      11        11         1      1997    recall           pt00009       0.00000       0.00000       0.00000       0.00000       0.00000       0.00000       0.00000       0.00000       0.00000       0.00000       0.00000       0.00000       0.00000       0.00000       0.00000       0.00000       0.00000       0.00000  
      12        12         1      1997    recall           pt00009       0.00000       0.00000       0.00000       0.00000       0.00000       0.00000       0.00000       0.00000       0.00000       0.00000       0.00000       0.00000       0.00000       0.00000       0.00000       0.00000       0.00000       0.00000  
       1         1         1      1998    recall           pt00009       0.00000       0.00000       0.00000       0.00000       0.00000       0.00000       0.00000       0.00000       0.00000       0.00000       0.00000       0.00000       0.00000       0.00000       0.00000       0.00000       0.00000       0.00000  
       2         2         1      1998    recall           pt00009       0.00000       0.00000       0.00000       0.00000       0.00000       0.00000       0.00000       0.00000       0.00000       0.00000       0.00000       0.00000       0.00000       0.00000       0.00000       0.00000       0.00000       0.00000  
       3         3         1      1998    recall           pt00009       0.00000       0.00000       0.00000       0.00000       0.00000       0.00000       0.00000       0.00000       0.00000       0.00000       0.00000       0.00000       0.00000       0.00000       0.00000       0.00000       0.00000       0.00000  
       4         4         1      1998    recall           pt00009       0.00000       0.00000       0.00000       0.00000       0.00000       0.00000       0.00000       0.00000       0.00000       0.00000       0.00000       0.00000       0.00000       0.00000       0.00000       0.00000       0.00000       0.00000  
       5         5         1      1998    recall           pt00009       0.00000       0.00000       0.00000       0.00000       0.00000       0.00000       0.00000       0.00000       0.00000       0.00000       0.00000       0.00000       0.00000       0.00000       0.00000       0.00000       0.00000       0.00000  
       6         6         1      1998    recall           pt00009       0.00000       0.00000       0.00000       0.00000       0.00000       0.00000       0.00000       0.00000       0.00000       0.00000       0.00000       0.00000       0.00000       0.00000       0.00000       0.00000       0.00000       0.00000  
       7         7         1      1998    recall           pt00009       0.00000       0.00000       0.00000       0.00000       0.00000       0.00000       0.00000       0.00000       0.00000       0.00000       0.00000       0.00000       0.00000       0.00000       0.00000       0.00000       0.00000       0.00000  
       8         8         1      1998    recall           pt00009       0.00000       0.00000       0.00000       0.00000       0.00000       0.00000       0.00000       0.00000       0.00000       0.00000       0.00000       0.00000       0.00000       0.00000       0.00000       0.00000       0.00000       0.00000  
       9         9         1      1998    recall           pt00009       0.00000       0.00000       0.00000       0.00000       0.00000       0.00000       0.00000       0.00000       0.00000       0.00000       0.00000       0.00000       0.00000       0.00000       0.00000       0.00000       0.00000       0.00000  
      10        10         1      1998    recall           pt00009       0.00000       0.00000       0.00000       0.00000       0.00000       0.00000       0.00000       0.00000       0.00000       0.00000       0.00000       0.00000       0.00000       0.00000       0.00000       0.00000       0.00000       0.00000  
      11        11         1      1998    recall           pt00009       0.00000       0.00000       0.00000       0.00000       0.00000       0.00000       0.00000       0.00000       0.00000       0.00000       0.00000       0.00000       0.00000       0.00000       0.00000       0.00000       0.00000       0.00000  
      12        12         1      1998    recall           pt00009       0.00000       0.00000       0.00000       0.00000       0.00000       0.00000       0.00000       0.00000       0.00000       0.00000       0.00000       0.00000       0.00000       0.00000       0.00000       0.00000       0.00000       0.00000  
       1         1         1      1999    recall           pt00009       0.00000       0.00000       0.00000       0.00000       0.00000       0.00000       0.00000       0.00000       0.00000       0.00000       0.00000       0.00000       0.00000       0.00000       0.00000       0.00000       0.00000       0.00000  
       2         2         1      1999    recall           pt00009       0.00000       0.00000       0.00000       0.00000       0.00000       0.00000       0.00000       0.00000       0.00000       0.00000       0.00000       0.00000       0.00000       0.00000       0.00000       0.00000       0.00000       0.00000  
       3         3         1      1999    recall           pt00009       0.00000       0.00000       0.00000       0.00000       0.00000       0.00000       0.00000       0.00000       0.00000       0.00000       0.00000       0.00000       0.00000       0.00000       0.00000       0.00000       0.00000       0.00000  
       4         4         1      1999    recall           pt00009       0.00000       0.00000       0.00000       0.00000       0.00000       0.00000       0.00000       0.00000       0.00000       0.00000       0.00000       0.00000       0.00000       0.00000       0.00000       0.00000       0.00000       0.00000  
       5         5         1      1999    recall           pt00009       0.00000       0.00000       0.00000       0.00000       0.00000       0.00000       0.00000       0.00000       0.00000       0.00000       0.00000       0.00000       0.00000       0.00000       0.00000       0.00000       0.00000       0.00000  
       6         6         1      1999    recall           pt00009       0.00000       0.00000       0.00000       0.00000       0.00000       0.00000       0.00000       0.00000       0.00000       0.00000       0.00000       0.00000       0.00000       0.00000       0.00000       0.00000       0.00000       0.00000  
       7         7         1      1999    recall           pt00009       0.00000       0.00000       0.00000       0.00000       0.00000       0.00000       0.00000       0.00000       0.00000       0.00000       0.00000       0.00000       0.00000       0.00000       0.00000       0.00000       0.00000       0.00000  
       8         8         1      1999    recall           pt00009       0.00000       0.00000       0.00000       0.00000       0.00000       0.00000       0.00000       0.00000       0.00000       0.00000       0.00000       0.00000       0.00000       0.00000       0.00000       0.00000       0.00000       0.00000  
       9         9         1      1999    recall           pt00009       0.00000       0.00000       0.00000       0.00000       0.00000       0.00000       0.00000       0.00000       0.00000       0.00000       0.00000       0.00000       0.00000       0.00000       0.00000       0.00000       0.00000       0.00000  
      10        10         1      1999    recall           pt00009       0.00000       0.00000       0.00000       0.00000       0.00000       0.00000       0.00000       0.00000       0.00000       0.00000       0.00000       0.00000       0.00000       0.00000       0.00000       0.00000       0.00000       0.00000  
      11        11         1      1999    recall           pt00009       0.00000       0.00000       0.00000       0.00000       0.00000       0.00000       0.00000       0.00000       0.00000       0.00000       0.00000       0.00000       0.00000       0.00000       0.00000       0.00000       0.00000       0.00000  
      12        12         1      1999    recall           pt00009       0.00000       0.00000       0.00000       0.00000       0.00000       0.00000       0.00000       0.00000       0.00000       0.00000       0.00000       0.00000       0.00000       0.00000       0.00000       0.00000       0.00000       0.00000  
       1         1         1      2000    recall           pt00009       0.00000       0.00000       0.00000       0.00000       0.00000       0.00000       0.00000       0.00000       0.00000       0.00000       0.00000       0.00000       0.00000       0.00000       0.00000       0.00000       0.00000       0.00000  
       2         2         1      2000    recall           pt00009       0.00000       0.00000       0.00000       0.00000       0.00000       0.00000       0.00000       0.00000       0.00000       0.00000       0.00000       0.00000       0.00000       0.00000       0.00000       0.00000       0.00000       0.00000  
       3         3         1      2000    recall           pt00009       0.00000       0.00000       0.00000       0.00000       0.00000       0.00000       0.00000       0.00000       0.00000       0.00000       0.00000       0.00000       0.00000       0.00000       0.00000       0.00000       0.00000       0.00000  
       4         4         1      2000    recall           pt00009       0.00000       0.00000       0.00000       0.00000       0.00000       0.00000       0.00000       0.00000       0.00000       0.00000       0.00000       0.00000       0.00000       0.00000       0.00000       0.00000       0.00000       0.00000  
       5         5         1      2000    recall           pt00009       0.00000       0.00000       0.00000       0.00000       0.00000       0.00000       0.00000       0.00000       0.00000       0.00000       0.00000       0.00000       0.00000       0.00000       0.00000       0.00000       0.00000       0.00000  
       6         6         1      2000    recall           pt00009       0.00000       0.00000       0.00000       0.00000       0.00000       0.00000       0.00000       0.00000       0.00000       0.00000       0.00000       0.00000       0.00000       0.00000       0.00000       0.00000       0.00000       0.00000  
       7         7         1      2000    recall           pt00009       0.00000       0.00000       0.00000       0.00000       0.00000       0.00000       0.00000       0.00000       0.00000       0.00000       0.00000       0.00000       0.00000       0.00000       0.00000       0.00000       0.00000       0.00000  
       8         8         1      2000    recall           pt00009       0.00000       0.00000       0.00000       0.00000       0.00000       0.00000       0.00000       0.00000       0.00000       0.00000       0.00000       0.00000       0.00000       0.00000       0.00000       0.00000       0.00000       0.00000  
       9         9         1      2000    recall           pt00009       0.00000       0.00000       0.00000       0.00000       0.00000       0.00000       0.00000       0.00000       0.00000       0.00000       0.00000       0.00000       0.00000       0.00000       0.00000       0.00000       0.00000       0.00000  
      10        10         1      2000    recall           pt00009       0.00000       0.00000       0.00000       0.00000       0.00000       0.00000       0.00000       0.00000       0.00000       0.00000       0.00000       0.00000       0.00000       0.00000       0.00000       0.00000       0.00000       0.00000  
      11        11         1      2000    recall           pt00009       0.00000       0.00000       0.00000       0.00000       0.00000       0.00000       0.00000       0.00000       0.00000       0.00000       0.00000       0.00000       0.00000       0.00000       0.00000       0.00000       0.00000       0.00000  
      12        12         1      2000    recall           pt00009       0.00000       0.00000       0.00000       0.00000       0.00000       0.00000       0.00000       0.00000       0.00000       0.00000       0.00000       0.00000       0.00000       0.00000       0.00000       0.00000       0.00000       0.00000  
       1         1         1      2001    recall           pt00009       0.00000       0.00000       0.00000       0.00000       0.00000       0.00000       0.00000       0.00000       0.00000       0.00000       0.00000       0.00000       0.00000       0.00000       0.00000       0.00000       0.00000       0.00000  
       2         2         1      2001    recall           pt00009       0.00000       0.00000       0.00000       0.00000       0.00000       0.00000       0.00000       0.00000       0.00000       0.00000       0.00000       0.00000       0.00000       0.00000       0.00000       0.00000       0.00000       0.00000  
       3         3         1      2001    recall           pt00009       0.00000       0.00000       0.00000       0.00000       0.00000       0.00000       0.00000       0.00000       0.00000       0.00000       0.00000       0.00000       0.00000       0.00000       0.00000       0.00000       0.00000       0.00000  
       4         4         1      2001    recall           pt00009       0.00000       0.00000       0.00000       0.00000       0.00000       0.00000       0.00000       0.00000       0.00000       0.00000       0.00000       0.00000       0.00000       0.00000       0.00000       0.00000       0.00000       0.00000  
       5         5         1      2001    recall           pt00009       0.00000       0.00000       0.00000       0.00000       0.00000       0.00000       0.00000       0.00000       0.00000       0.00000       0.00000       0.00000       0.00000       0.00000       0.00000       0.00000       0.00000       0.00000  
       6         6         1      2001    recall           pt00009       0.00000       0.00000       0.00000       0.00000       0.00000       0.00000       0.00000       0.00000       0.00000       0.00000       0.00000       0.00000       0.00000       0.00000       0.00000       0.00000       0.00000       0.00000  
       7         7         1      2001    recall           pt00009       0.00000       0.00000       0.00000       0.00000       0.00000       0.00000       0.00000       0.00000       0.00000       0.00000       0.00000       0.00000       0.00000       0.00000       0.00000       0.00000       0.00000       0.00000  
       8         8         1      2001    recall           pt00009       0.00000       0.00000       0.00000       0.00000       0.00000       0.00000       0.00000       0.00000       0.00000       0.00000       0.00000       0.00000       0.00000       0.00000       0.00000       0.00000       0.00000       0.00000  
       9         9         1      2001    recall           pt00009       0.00000       0.00000       0.00000       0.00000       0.00000       0.00000       0.00000       0.00000       0.00000       0.00000       0.00000       0.00000       0.00000       0.00000       0.00000       0.00000       0.00000       0.00000  
      10        10         1      2001    recall           pt00009       0.00000       0.00000       0.00000       0.00000       0.00000       0.00000       0.00000       0.00000       0.00000       0.00000       0.00000       0.00000       0.00000       0.00000       0.00000       0.00000       0.00000       0.00000  
      11        11         1      2001    recall           pt00009       0.00000       0.00000       0.00000       0.00000       0.00000       0.00000       0.00000       0.00000       0.00000       0.00000       0.00000       0.00000       0.00000       0.00000       0.00000       0.00000       0.00000       0.00000  
      12        12         1      2001    recall           pt00009       0.00000       0.00000       0.00000       0.00000       0.00000       0.00000       0.00000       0.00000       0.00000       0.00000       0.00000       0.00000       0.00000       0.00000       0.00000       0.00000       0.00000       0.00000  
       1         1         1      2002    recall           pt00009      16.42746       0.00012       0.38802       0.01906       0.03860       0.06308       0.00000       0.01643       0.00871       0.20534       0.00000       0.00000       0.00000       0.00000       0.00000       0.00000       0.00000       0.00000  
       2         2         1      2002    recall           pt00009      16.42746       0.00012       0.38802       0.01906       0.03860       0.06308       0.00000       0.01643       0.00871       0.20534       0.00000       0.00000       0.00000       0.00000       0.00000       0.00000       0.00000       0.00000  
       3         3         1      2002    recall           pt00009      16.42746       0.00012       0.38802       0.01906       0.03860       0.06308       0.00000       0.01643       0.00871       0.20534       0.00000       0.00000       0.00000       0.00000       0.00000       0.00000       0.00000       0.00000  
       4         4         1      2002    recall           pt00009      16.42746       0.00012       0.38802       0.01906       0.03860       0.06308       0.00000       0.01643       0.00871       0.20534       0.00000       0.00000       0.00000       0.00000       0.00000       0.00000       0.00000       0.00000  
       5         5         1      2002    recall           pt00009      16.42746       0.00012       0.38802       0.01906       0.03860       0.06308       0.00000       0.01643       0.00871       0.20534       0.00000       0.00000       0.00000       0.00000       0.00000       0.00000       0.00000       0.00000  
       6         6         1      2002    recall           pt00009      16.42746       0.00012       0.38802       0.01906       0.03860       0.06308       0.00000       0.01643       0.00871       0.20534       0.00000       0.00000       0.00000       0.00000       0.00000       0.00000       0.00000       0.00000  
       7         7         1      2002    recall           pt00009      16.42746       0.00012       0.38802       0.01906       0.03860       0.06308       0.00000       0.01643       0.00871       0.20534       0.00000       0.00000       0.00000       0.00000       0.00000       0.00000       0.00000       0.00000  
       8         8         1      2002    recall           pt00009      16.42746       0.00012       0.38802       0.01906       0.03860       0.06308       0.00000       0.01643       0.00871       0.20534       0.00000       0.00000       0.00000       0.00000       0.00000       0.00000       0.00000       0.00000  
       9         9         1      2002    recall           pt00009      16.42746       0.00012       0.38802       0.01906       0.03860       0.06308       0.00000       0.01643       0.00871       0.20534       0.00000       0.00000       0.00000       0.00000       0.00000       0.00000       0.00000       0.00000  
      10        10         1      2002    recall           pt00009      16.42746       0.00012       0.38802       0.01906       0.03860       0.06308       0.00000       0.01643       0.00871       0.20534       0.00000       0.00000       0.00000       0.00000       0.00000       0.00000       0.00000       0.00000  
      11        11         1      2002    recall           pt00009      16.42746       0.00012       0.38802       0.01906       0.03860       0.06308       0.00000       0.01643       0.00871       0.20534       0.00000       0.00000       0.00000       0.00000       0.00000       0.00000       0.00000       0.00000  
      12        12         1      2002    recall           pt00009      16.42746       0.00012       0.38802       0.01906       0.03860       0.06308       0.00000       0.01643       0.00871       0.20534       0.00000       0.00000       0.00000       0.00000       0.00000       0.00000       0.00000       0.00000  
       1         1         1      2003    recall           pt00009      19.98674       0.00013       0.05189       0.02358       0.07783       0.02358       0.00000       0.12971       0.00000       0.11792       0.00000       0.00000       0.00000       0.00000       0.00000       0.00000       0.00000       0.00000  
       2         2         1      2003    recall           pt00009      19.98674       0.00013       0.05189       0.02358       0.07783       0.02358       0.00000       0.12971       0.00000       0.11792       0.00000       0.00000       0.00000       0.00000       0.00000       0.00000       0.00000       0.00000  
       3         3         1      2003    recall           pt00009      19.98674       0.00013       0.05189       0.02358       0.07783       0.02358       0.00000       0.12971       0.00000       0.11792       0.00000       0.00000       0.00000       0.00000       0.00000       0.00000       0.00000       0.00000  
       4         4         1      2003    recall           pt00009      19.98674       0.00013       0.05189       0.02358       0.07783       0.02358       0.00000       0.12971       0.00000       0.11792       0.00000       0.00000       0.00000       0.00000       0.00000       0.00000       0.00000       0.00000  
       5         5         1      2003    recall           pt00009      19.98674       0.00013       0.05189       0.02358       0.07783       0.02358       0.00000       0.12971       0.00000       0.11792       0.00000       0.00000       0.00000       0.00000       0.00000       0.00000       0.00000       0.00000  
       6         6         1      2003    recall           pt00009      19.98674       0.00013       0.05189       0.02358       0.07783       0.02358       0.00000       0.12971       0.00000       0.11792       0.00000       0.00000       0.00000       0.00000       0.00000       0.00000       0.00000       0.00000  
       7         7         1      2003    recall           pt00009      19.98674       0.00013       0.05189       0.02358       0.07783       0.02358       0.00000       0.12971       0.00000       0.11792       0.00000       0.00000       0.00000       0.00000       0.00000       0.00000       0.00000       0.00000  
       8         8         1      2003    recall           pt00009      19.98674       0.00013       0.05189       0.02358       0.07783       0.02358       0.00000       0.12971       0.00000       0.11792       0.00000       0.00000       0.00000       0.00000       0.00000       0.00000       0.00000       0.00000  
       9         9         1      2003    recall           pt00009      19.98674       0.00013       0.05189       0.02358       0.07783       0.02358       0.00000       0.12971       0.00000       0.11792       0.00000       0.00000       0.00000       0.00000       0.00000       0.00000       0.00000       0.00000  
      10        10         1      2003    recall           pt00009      19.98674       0.00013       0.05189       0.02358       0.07783       0.02358       0.00000       0.12971       0.00000       0.11792       0.00000       0.00000       0.00000       0.00000       0.00000       0.00000       0.00000       0.00000  
      11        11         1      2003    recall           pt00009      19.98674       0.00013       0.05189       0.02358       0.07783       0.02358       0.00000       0.12971       0.00000       0.11792       0.00000       0.00000       0.00000       0.00000       0.00000       0.00000       0.00000       0.00000  
      12        12         1      2003    recall           pt00009      19.98674       0.00013       0.05189       0.02358       0.07783       0.02358       0.00000       0.12971       0.00000       0.11792       0.00000       0.00000       0.00000       0.00000       0.00000       0.00000       0.00000       0.00000  
       1         1         1      2004    recall           pt00009      24.64118       0.00017       0.05670       0.02577       0.08506       0.02577       0.00000       0.14176       0.00000       0.12887       0.00000       0.00000       0.00000       0.00000       0.00000       0.00000       0.00000       0.00000  
       2         2         1      2004    recall           pt00009      24.64118       0.00017       0.05670       0.02577       0.08506       0.02577       0.00000       0.14176       0.00000       0.12887       0.00000       0.00000       0.00000       0.00000       0.00000       0.00000       0.00000       0.00000  
       3         3         1      2004    recall           pt00009      24.64118       0.00017       0.05670       0.02577       0.08506       0.02577       0.00000       0.14176       0.00000       0.12887       0.00000       0.00000       0.00000       0.00000       0.00000       0.00000       0.00000       0.00000  
       4         4         1      2004    recall           pt00009      24.64118       0.00017       0.05670       0.02577       0.08506       0.02577       0.00000       0.14176       0.00000       0.12887       0.00000       0.00000       0.00000       0.00000       0.00000       0.00000       0.00000       0.00000  
       5         5         1      2004    recall           pt00009      24.64118       0.00017       0.05670       0.02577       0.08506       0.02577       0.00000       0.14176       0.00000       0.12887       0.00000       0.00000       0.00000       0.00000       0.00000       0.00000       0.00000       0.00000  
       6         6         1      2004    recall           pt00009      24.64118       0.00017       0.05670       0.02577       0.08506       0.02577       0.00000       0.14176       0.00000       0.12887       0.00000       0.00000       0.00000       0.00000       0.00000       0.00000       0.00000       0.00000  
       7         7         1      2004    recall           pt00009      24.64118       0.00017       0.05670       0.02577       0.08506       0.02577       0.00000       0.14176       0.00000       0.12887       0.00000       0.00000       0.00000       0.00000       0.00000       0.00000       0.00000       0.00000  
       8         8         1      2004    recall           pt00009      24.64118       0.00017       0.05670       0.02577       0.08506       0.02577       0.00000       0.14176       0.00000       0.12887       0.00000       0.00000       0.00000       0.00000       0.00000       0.00000       0.00000       0.00000  
       9         9         1      2004    recall           pt00009      24.64118       0.00017       0.05670       0.02577       0.08506       0.02577       0.00000       0.14176       0.00000       0.12887       0.00000       0.00000       0.00000       0.00000       0.00000       0.00000       0.00000       0.00000  
      10        10         1      2004    recall           pt00009      24.64118       0.00017       0.05670       0.02577       0.08506       0.02577       0.00000       0.14176       0.00000       0.12887       0.00000       0.00000       0.00000       0.00000       0.00000       0.00000       0.00000       0.00000  
      11        11         1      2004    recall           pt00009      24.64118       0.00017       0.05670       0.02577       0.08506       0.02577       0.00000       0.14176       0.00000       0.12887       0.00000       0.00000       0.00000       0.00000       0.00000       0.00000       0.00000       0.00000  
      12        12         1      2004    recall           pt00009      24.64118       0.00017       0.05670       0.02577       0.08506       0.02577       0.00000       0.14176       0.00000       0.12887       0.00000       0.00000       0.00000       0.00000       0.00000       0.00000       0.00000       0.00000  
       1         1         1      2005    recall           pt00009      34.49766       0.00038       0.13700       0.06067       0.15597       0.06067       0.00000       0.32128       0.00000       0.33282       0.00000       0.00000       0.00000       0.00000       0.00000       0.00000       0.00000       0.00000  
       2         2         1      2005    recall           pt00009      34.49766       0.00038       0.13700       0.06067       0.15597       0.06067       0.00000       0.32128       0.00000       0.33282       0.00000       0.00000       0.00000       0.00000       0.00000       0.00000       0.00000       0.00000  
       3         3         1      2005    recall           pt00009      34.49766       0.00038       0.13700       0.06067       0.15597       0.06067       0.00000       0.32128       0.00000       0.33282       0.00000       0.00000       0.00000       0.00000       0.00000       0.00000       0.00000       0.00000  
       4         4         1      2005    recall           pt00009      34.49766       0.00038       0.13700       0.06067       0.15597       0.06067       0.00000       0.32128       0.00000       0.33282       0.00000       0.00000       0.00000       0.00000       0.00000       0.00000       0.00000       0.00000  
       5         5         1      2005    recall           pt00009      34.49766       0.00038       0.13700       0.06067       0.15597       0.06067       0.00000       0.32128       0.00000       0.33282       0.00000       0.00000       0.00000       0.00000       0.00000       0.00000       0.00000       0.00000  
       6         6         1      2005    recall           pt00009      34.49766       0.00038       0.13700       0.06067       0.15597       0.06067       0.00000       0.32128       0.00000       0.33282       0.00000       0.00000       0.00000       0.00000       0.00000       0.00000       0.00000       0.00000  
       7         7         1      2005    recall           pt00009      34.49766       0.00038       0.13700       0.06067       0.15597       0.06067       0.00000       0.32128       0.00000       0.33282       0.00000       0.00000       0.00000       0.00000       0.00000       0.00000       0.00000       0.00000  
       8         8         1      2005    recall           pt00009      34.49766       0.00038       0.13700       0.06067       0.15597       0.06067       0.00000       0.32128       0.00000       0.33282       0.00000       0.00000       0.00000       0.00000       0.00000       0.00000       0.00000       0.00000  
       9         9         1      2005    recall           pt00009      34.49766       0.00038       0.13700       0.06067       0.15597       0.06067       0.00000       0.32128       0.00000       0.33282       0.00000       0.00000       0.00000       0.00000       0.00000       0.00000       0.00000       0.00000  
      10        10         1      2005    recall           pt00009      34.49766       0.00038       0.13700       0.06067       0.15597       0.06067       0.00000       0.32128       0.00000       0.33282       0.00000       0.00000       0.00000       0.00000       0.00000       0.00000       0.00000       0.00000  
      11        11         1      2005    recall           pt00009      34.49766       0.00038       0.13700       0.06067       0.15597       0.06067       0.00000       0.32128       0.00000       0.33282       0.00000       0.00000       0.00000       0.00000       0.00000       0.00000       0.00000       0.00000  
      12        12         1      2005    recall           pt00009      34.49766       0.00038       0.13700       0.06067       0.15597       0.06067       0.00000       0.32128       0.00000       0.33282       0.00000       0.00000       0.00000       0.00000       0.00000       0.00000       0.00000       0.00000  
       1         1         1      2006    recall           pt00009      31.75975       0.00041       0.34074       0.14785       0.29446       0.14785       0.00000       0.75900       0.00000       0.86819       0.00000       0.00000       0.00000       0.00000       0.00000       0.00000       0.00000       0.00000  
       2         2         1      2006    recall           pt00009      31.75975       0.00041       0.34074       0.14785       0.29446       0.14785       0.00000       0.75900       0.00000       0.86819       0.00000       0.00000       0.00000       0.00000       0.00000       0.00000       0.00000       0.00000  
       3         3         1      2006    recall           pt00009      31.75975       0.00041       0.34074       0.14785       0.29446       0.14785       0.00000       0.75900       0.00000       0.86819       0.00000       0.00000       0.00000       0.00000       0.00000       0.00000       0.00000       0.00000  
       4         4         1      2006    recall           pt00009      31.75975       0.00041       0.34074       0.14785       0.29446       0.14785       0.00000       0.75900       0.00000       0.86819       0.00000       0.00000       0.00000       0.00000       0.00000       0.00000       0.00000       0.00000  
       5         5         1      2006    recall           pt00009      31.75975       0.00041       0.34074       0.14785       0.29446       0.14785       0.00000       0.75900       0.00000       0.86819       0.00000       0.00000       0.00000       0.00000       0.00000       0.00000       0.00000       0.00000  
       6         6         1      2006    recall           pt00009      31.75975       0.00041       0.34074       0.14785       0.29446       0.14785       0.00000       0.75900       0.00000       0.86819       0.00000       0.00000       0.00000       0.00000       0.00000       0.00000       0.00000       0.00000  
       7         7         1      2006    recall           pt00009      31.75975       0.00041       0.34074       0.14785       0.29446       0.14785       0.00000       0.75900       0.00000       0.86819       0.00000       0.00000       0.00000       0.00000       0.00000       0.00000       0.00000       0.00000  
       8         8         1      2006    recall           pt00009      31.75975       0.00041       0.34074       0.14785       0.29446       0.14785       0.00000       0.75900       0.00000       0.86819       0.00000       0.00000       0.00000       0.00000       0.00000       0.00000       0.00000       0.00000  
       9         9         1      2006    recall           pt00009      31.75975       0.00041       0.34074       0.14785       0.29446       0.14785       0.00000       0.75900       0.00000       0.86819       0.00000       0.00000       0.00000       0.00000       0.00000       0.00000       0.00000       0.00000  
      10        10         1      2006    recall           pt00009      31.75975       0.00041       0.34074       0.14785       0.29446       0.14785       0.00000       0.75900       0.00000       0.86819       0.00000       0.00000       0.00000       0.00000       0.00000       0.00000       0.00000       0.00000  
      11        11         1      2006    recall           pt00009      31.75975       0.00041       0.34074       0.14785       0.29446       0.14785       0.00000       0.75900       0.00000       0.86819       0.00000       0.00000       0.00000       0.00000       0.00000       0.00000       0.00000       0.00000  
      12        12         1      2006    recall           pt00009      31.75975       0.00041       0.34074       0.14785       0.29446       0.14785       0.00000       0.75900       0.00000       0.86819       0.00000       0.00000       0.00000       0.00000       0.00000       0.00000       0.00000       0.00000  
       1         1         1      2007    recall           pt00009      59.13884       0.00049       0.19271       0.08657       0.25756       0.08657       0.00000       0.46828       0.00000       0.45162       0.00000       0.00000       0.00000       0.00000       0.00000       0.00000       0.00000       0.00000  
       2         2         1      2007    recall           pt00009      59.13884       0.00049       0.19271       0.08657       0.25756       0.08657       0.00000       0.46828       0.00000       0.45162       0.00000       0.00000       0.00000       0.00000       0.00000       0.00000       0.00000       0.00000  
       3         3         1      2007    recall           pt00009      59.13884       0.00049       0.19271       0.08657       0.25756       0.08657       0.00000       0.46828       0.00000       0.45162       0.00000       0.00000       0.00000       0.00000       0.00000       0.00000       0.00000       0.00000  
       4         4         1      2007    recall           pt00009      59.13884       0.00049       0.19271       0.08657       0.25756       0.08657       0.00000       0.46828       0.00000       0.45162       0.00000       0.00000       0.00000       0.00000       0.00000       0.00000       0.00000       0.00000  
       5         5         1      2007    recall           pt00009      59.13884       0.00049       0.19271       0.08657       0.25756       0.08657       0.00000       0.46828       0.00000       0.45162       0.00000       0.00000       0.00000       0.00000       0.00000       0.00000       0.00000       0.00000  
       6         6         1      2007    recall           pt00009      59.13884       0.00049       0.19271       0.08657       0.25756       0.08657       0.00000       0.46828       0.00000       0.45162       0.00000       0.00000       0.00000       0.00000       0.00000       0.00000       0.00000       0.00000  
       7         7         1      2007    recall           pt00009      59.13884       0.00049       0.19271       0.08657       0.25756       0.08657       0.00000       0.46828       0.00000       0.45162       0.00000       0.00000       0.00000       0.00000       0.00000       0.00000       0.00000       0.00000  
       8         8         1      2007    recall           pt00009      59.13884       0.00049       0.19271       0.08657       0.25756       0.08657       0.00000       0.46828       0.00000       0.45162       0.00000       0.00000       0.00000       0.00000       0.00000       0.00000       0.00000       0.00000  
       9         9         1      2007    recall           pt00009      59.13884       0.00049       0.19271       0.08657       0.25756       0.08657       0.00000       0.46828       0.00000       0.45162       0.00000       0.00000       0.00000       0.00000       0.00000       0.00000       0.00000       0.00000  
      10        10         1      2007    recall           pt00009      59.13884       0.00049       0.19271       0.08657       0.25756       0.08657       0.00000       0.46828       0.00000       0.45162       0.00000       0.00000       0.00000       0.00000       0.00000       0.00000       0.00000       0.00000  
      11        11         1      2007    recall           pt00009      59.13884       0.00049       0.19271       0.08657       0.25756       0.08657       0.00000       0.46828       0.00000       0.45162       0.00000       0.00000       0.00000       0.00000       0.00000       0.00000       0.00000       0.00000  
      12        12         1      2007    recall           pt00009      59.13884       0.00049       0.19271       0.08657       0.25756       0.08657       0.00000       0.46828       0.00000       0.45162       0.00000       0.00000       0.00000       0.00000       0.00000       0.00000       0.00000       0.00000  
       1         1         1      2008    recall           pt00009      71.73322       0.00112       0.45840       0.19958       0.41692       0.19958       0.00000       1.03000       0.00000       1.15901       0.00000       0.00000       0.00000       0.00000       0.00000       0.00000       0.00000       0.00000  
       2         2         1      2008    recall           pt00009      71.73322       0.00112       0.45840       0.19958       0.41692       0.19958       0.00000       1.03000       0.00000       1.15901       0.00000       0.00000       0.00000       0.00000       0.00000       0.00000       0.00000       0.00000  
       3         3         1      2008    recall           pt00009      71.73322       0.00112       0.45840       0.19958       0.41692       0.19958       0.00000       1.03000       0.00000       1.15901       0.00000       0.00000       0.00000       0.00000       0.00000       0.00000       0.00000       0.00000  
       4         4         1      2008    recall           pt00009      71.73322       0.00112       0.45840       0.19958       0.41692       0.19958       0.00000       1.03000       0.00000       1.15901       0.00000       0.00000       0.00000       0.00000       0.00000       0.00000       0.00000       0.00000  
       5         5         1      2008    recall           pt00009      71.73322       0.00112       0.45840       0.19958       0.41692       0.19958       0.00000       1.03000       0.00000       1.15901       0.00000       0.00000       0.00000       0.00000       0.00000       0.00000       0.00000       0.00000  
       6         6         1      2008    recall           pt00009      71.73322       0.00112       0.45840       0.19958       0.41692       0.19958       0.00000       1.03000       0.00000       1.15901       0.00000       0.00000       0.00000       0.00000       0.00000       0.00000       0.00000       0.00000  
       7         7         1      2008    recall           pt00009      71.73322       0.00112       0.45840       0.19958       0.41692       0.19958       0.00000       1.03000       0.00000       1.15901       0.00000       0.00000       0.00000       0.00000       0.00000       0.00000       0.00000       0.00000  
       8         8         1      2008    recall           pt00009      71.73322       0.00112       0.45840       0.19958       0.41692       0.19958       0.00000       1.03000       0.00000       1.15901       0.00000       0.00000       0.00000       0.00000       0.00000       0.00000       0.00000       0.00000  
       9         9         1      2008    recall           pt00009      71.73322       0.00112       0.45840       0.19958       0.41692       0.19958       0.00000       1.03000       0.00000       1.15901       0.00000       0.00000       0.00000       0.00000       0.00000       0.00000       0.00000       0.00000  
      10        10         1      2008    recall           pt00009      71.73322       0.00112       0.45840       0.19958       0.41692       0.19958       0.00000       1.03000       0.00000       1.15901       0.00000       0.00000       0.00000       0.00000       0.00000       0.00000       0.00000       0.00000  
      11        11         1      2008    recall           pt00009      71.73322       0.00112       0.45840       0.19958       0.41692       0.19958       0.00000       1.03000       0.00000       1.15901       0.00000       0.00000       0.00000       0.00000       0.00000       0.00000       0.00000       0.00000  
      12        12         1      2008    recall           pt00009      71.73322       0.00112       0.45840       0.19958       0.41692       0.19958       0.00000       1.03000       0.00000       1.15901       0.00000       0.00000       0.00000       0.00000       0.00000       0.00000       0.00000       0.00000  
       1         1         1      2009    recall           pt00009      72.82839       0.00093       0.19122       0.09522       0.31566       0.11274       0.00000       0.59883       0.07447       0.54839       0.00000       0.00000       0.00000       0.00000       0.00000       0.00000       0.00000       0.00000  
       2         2         1      2009    recall           pt00009      72.82839       0.00093       0.19122       0.09522       0.31566       0.11274       0.00000       0.59883       0.07447       0.54839       0.00000       0.00000       0.00000       0.00000       0.00000       0.00000       0.00000       0.00000  
       3         3         1      2009    recall           pt00009      72.82839       0.00093       0.19122       0.09522       0.31566       0.11274       0.00000       0.59883       0.07447       0.54839       0.00000       0.00000       0.00000       0.00000       0.00000       0.00000       0.00000       0.00000  
       4         4         1      2009    recall           pt00009      72.82839       0.00093       0.19122       0.09522       0.31566       0.11274       0.00000       0.59883       0.07447       0.54839       0.00000       0.00000       0.00000       0.00000       0.00000       0.00000       0.00000       0.00000  
       5         5         1      2009    recall           pt00009      72.82839       0.00093       0.19122       0.09522       0.31566       0.11274       0.00000       0.59883       0.07447       0.54839       0.00000       0.00000       0.00000       0.00000       0.00000       0.00000       0.00000       0.00000  
       6         6         1      2009    recall           pt00009      72.82839       0.00093       0.19122       0.09522       0.31566       0.11274       0.00000       0.59883       0.07447       0.54839       0.00000       0.00000       0.00000       0.00000       0.00000       0.00000       0.00000       0.00000  
       7         7         1      2009    recall           pt00009      72.82839       0.00093       0.19122       0.09522       0.31566       0.11274       0.00000       0.59883       0.07447       0.54839       0.00000       0.00000       0.00000       0.00000       0.00000       0.00000       0.00000       0.00000  
       8         8         1      2009    recall           pt00009      72.82839       0.00093       0.19122       0.09522       0.31566       0.11274       0.00000       0.59883       0.07447       0.54839       0.00000       0.00000       0.00000       0.00000       0.00000       0.00000       0.00000       0.00000  
       9         9         1      2009    recall           pt00009      72.82839       0.00093       0.19122       0.09522       0.31566       0.11274       0.00000       0.59883       0.07447       0.54839       0.00000       0.00000       0.00000       0.00000       0.00000       0.00000       0.00000       0.00000  
      10        10         1      2009    recall           pt00009      72.82839       0.00093       0.19122       0.09522       0.31566       0.11274       0.00000       0.59883       0.07447       0.54839       0.00000       0.00000       0.00000       0.00000       0.00000       0.00000       0.00000       0.00000  
      11        11         1      2009    recall           pt00009      72.82839       0.00093       0.19122       0.09522       0.31566       0.11274       0.00000       0.59883       0.07447       0.54839       0.00000       0.00000       0.00000       0.00000       0.00000       0.00000       0.00000       0.00000  
      12        12         1      2009    recall           pt00009      72.82839       0.00093       0.19122       0.09522       0.31566       0.11274       0.00000       0.59883       0.07447       0.54839       0.00000       0.00000       0.00000       0.00000       0.00000       0.00000       0.00000       0.00000  
       1         1         1      2010    recall           pt00009       2.73791       0.00000       0.01163       0.00485       0.00388       0.00485       0.00000       0.02326       0.00000       0.03231       0.00000       0.00000       0.00000       0.00000       0.00000       0.00000       0.00000       0.00000  
       2         2         1      2010    recall           pt00009       2.73791       0.00000       0.01163       0.00485       0.00388       0.00485       0.00000       0.02326       0.00000       0.03231       0.00000       0.00000       0.00000       0.00000       0.00000       0.00000       0.00000       0.00000  
       3         3         1      2010    recall           pt00009       2.73791       0.00000       0.01163       0.00485       0.00388       0.00485       0.00000       0.02326       0.00000       0.03231       0.00000       0.00000       0.00000       0.00000       0.00000       0.00000       0.00000       0.00000  
       4         4         1      2010    recall           pt00009       2.73791       0.00000       0.01163       0.00485       0.00388       0.00485       0.00000       0.02326       0.00000       0.03231       0.00000       0.00000       0.00000       0.00000       0.00000       0.00000       0.00000       0.00000  
       5         5         1      2010    recall           pt00009       2.73791       0.00000       0.01163       0.00485       0.00388       0.00485       0.00000       0.02326       0.00000       0.03231       0.00000       0.00000       0.00000       0.00000       0.00000       0.00000       0.00000       0.00000  
       6         6         1      2010    recall           pt00009       2.73791       0.00000       0.01163       0.00485       0.00388       0.00485       0.00000       0.02326       0.00000       0.03231       0.00000       0.00000       0.00000       0.00000       0.00000       0.00000       0.00000       0.00000  
       7         7         1      2010    recall           pt00009       2.73791       0.00000       0.01163       0.00485       0.00388       0.00485       0.00000       0.02326       0.00000       0.03231       0.00000       0.00000       0.00000       0.00000       0.00000       0.00000       0.00000       0.00000  
       8         8         1      2010    recall           pt00009       2.73791       0.00000       0.01163       0.00485       0.00388       0.00485       0.00000       0.02326       0.00000       0.03231       0.00000       0.00000       0.00000       0.00000       0.00000       0.00000       0.00000       0.00000  
       9         9         1      2010    recall           pt00009       2.73791       0.00000       0.01163       0.00485       0.00388       0.00485       0.00000       0.02326       0.00000       0.03231       0.00000       0.00000       0.00000       0.00000       0.00000       0.00000       0.00000       0.00000  
      10        10         1      2010    recall           pt00009       2.73791       0.00000       0.01163       0.00485       0.00388       0.00485       0.00000       0.02326       0.00000       0.03231       0.00000       0.00000       0.00000       0.00000       0.00000       0.00000       0.00000       0.00000  
      11        11         1      2010    recall           pt00009       2.73791       0.00000       0.01163       0.00485       0.00388       0.00485       0.00000       0.02326       0.00000       0.03231       0.00000       0.00000       0.00000       0.00000       0.00000       0.00000       0.00000       0.00000  
      12        12         1      2010    recall           pt00009       2.73791       0.00000       0.01163       0.00485       0.00388       0.00485       0.00000       0.02326       0.00000       0.03231       0.00000       0.00000       0.00000       0.00000       0.00000       0.00000       0.00000       0.00000  
       1         1         1      2011    recall           pt00009       3.01170       0.00000       0.15613       0.06505       0.05204       0.06505       0.00000       0.31225       0.00000       0.43368       0.00000       0.00000       0.00000       0.00000       0.00000       0.00000       0.00000       0.00000  
       2         2         1      2011    recall           pt00009       3.01170       0.00000       0.15613       0.06505       0.05204       0.06505       0.00000       0.31225       0.00000       0.43368       0.00000       0.00000       0.00000       0.00000       0.00000       0.00000       0.00000       0.00000  
       3         3         1      2011    recall           pt00009       3.01170       0.00000       0.15613       0.06505       0.05204       0.06505       0.00000       0.31225       0.00000       0.43368       0.00000       0.00000       0.00000       0.00000       0.00000       0.00000       0.00000       0.00000  
       4         4         1      2011    recall           pt00009       3.01170       0.00000       0.15613       0.06505       0.05204       0.06505       0.00000       0.31225       0.00000       0.43368       0.00000       0.00000       0.00000       0.00000       0.00000       0.00000       0.00000       0.00000  
       5         5         1      2011    recall           pt00009       3.01170       0.00000       0.15613       0.06505       0.05204       0.06505       0.00000       0.31225       0.00000       0.43368       0.00000       0.00000       0.00000       0.00000       0.00000       0.00000       0.00000       0.00000  
       6         6         1      2011    recall           pt00009       3.01170       0.00000       0.15613       0.06505       0.05204       0.06505       0.00000       0.31225       0.00000       0.43368       0.00000       0.00000       0.00000       0.00000       0.00000       0.00000       0.00000       0.00000  
       7         7         1      2011    recall           pt00009       3.01170       0.00000       0.15613       0.06505       0.05204       0.06505       0.00000       0.31225       0.00000       0.43368       0.00000       0.00000       0.00000       0.00000       0.00000       0.00000       0.00000       0.00000  
       8         8         1      2011    recall           pt00009       3.01170       0.00000       0.15613       0.06505       0.05204       0.06505       0.00000       0.31225       0.00000       0.43368       0.00000       0.00000       0.00000       0.00000       0.00000       0.00000       0.00000       0.00000  
       9         9         1      2011    recall           pt00009       3.01170       0.00000       0.15613       0.06505       0.05204       0.06505       0.00000       0.31225       0.00000       0.43368       0.00000       0.00000       0.00000       0.00000       0.00000       0.00000       0.00000       0.00000  
      10        10         1      2011    recall           pt00009       3.01170       0.00000       0.15613       0.06505       0.05204       0.06505       0.00000       0.31225       0.00000       0.43368       0.00000       0.00000       0.00000       0.00000       0.00000       0.00000       0.00000       0.00000  
      11        11         1      2011    recall           pt00009       3.01170       0.00000       0.15613       0.06505       0.05204       0.06505       0.00000       0.31225       0.00000       0.43368       0.00000       0.00000       0.00000       0.00000       0.00000       0.00000       0.00000       0.00000  
      12        12         1      2011    recall           pt00009       3.01170       0.00000       0.15613       0.06505       0.05204       0.06505       0.00000       0.31225       0.00000       0.43368       0.00000       0.00000       0.00000       0.00000       0.00000       0.00000       0.00000       0.00000  
       1         1         1      2012    recall           pt00009      28.74805       0.00000       0.07254       0.03157       0.06557       0.03157       0.00000       0.16282       0.00000       0.18358       0.00000       0.00000       0.00000       0.00000       0.00000       0.00000       0.00000       0.00000  
       2         2         1      2012    recall           pt00009      28.74805       0.00000       0.07254       0.03157       0.06557       0.03157       0.00000       0.16282       0.00000       0.18358       0.00000       0.00000       0.00000       0.00000       0.00000       0.00000       0.00000       0.00000  
       3         3         1      2012    recall           pt00009      28.74805       0.00000       0.07254       0.03157       0.06557       0.03157       0.00000       0.16282       0.00000       0.18358       0.00000       0.00000       0.00000       0.00000       0.00000       0.00000       0.00000       0.00000  
       4         4         1      2012    recall           pt00009      28.74805       0.00000       0.07254       0.03157       0.06557       0.03157       0.00000       0.16282       0.00000       0.18358       0.00000       0.00000       0.00000       0.00000       0.00000       0.00000       0.00000       0.00000  
       5         5         1      2012    recall           pt00009      28.74805       0.00000       0.07254       0.03157       0.06557       0.03157       0.00000       0.16282       0.00000       0.18358       0.00000       0.00000       0.00000       0.00000       0.00000       0.00000       0.00000       0.00000  
       6         6         1      2012    recall           pt00009      28.74805       0.00000       0.07254       0.03157       0.06557       0.03157       0.00000       0.16282       0.00000       0.18358       0.00000       0.00000       0.00000       0.00000       0.00000       0.00000       0.00000       0.00000  
       7         7         1      2012    recall           pt00009      28.74805       0.00000       0.07254       0.03157       0.06557       0.03157       0.00000       0.16282       0.00000       0.18358       0.00000       0.00000       0.00000       0.00000       0.00000       0.00000       0.00000       0.00000  
       8         8         1      2012    recall           pt00009      28.74805       0.00000       0.07254       0.03157       0.06557       0.03157       0.00000       0.16282       0.00000       0.18358       0.00000       0.00000       0.00000       0.00000       0.00000       0.00000       0.00000       0.00000  
       9         9         1      2012    recall           pt00009      28.74805       0.00000       0.07254       0.03157       0.06557       0.03157       0.00000       0.16282       0.00000       0.18358       0.00000       0.00000       0.00000       0.00000       0.00000       0.00000       0.00000       0.00000  
      10        10         1      2012    recall           pt00009      28.74805       0.00000       0.07254       0.03157       0.06557       0.03157       0.00000       0.16282       0.00000       0.18358       0.00000       0.00000       0.00000       0.00000       0.00000       0.00000       0.00000       0.00000  
      11        11         1      2012    recall           pt00009      28.74805       0.00000       0.07254       0.03157       0.06557       0.03157       0.00000       0.16282       0.00000       0.18358       0.00000       0.00000       0.00000       0.00000       0.00000       0.00000       0.00000       0.00000  
      12        12         1      2012    recall           pt00009      28.74805       0.00000       0.07254       0.03157       0.06557       0.03157       0.00000       0.16282       0.00000       0.18358       0.00000       0.00000       0.00000       0.00000       0.00000       0.00000       0.00000       0.00000  
       1         1         1      2013    recall           pt00009      56.40093       0.00000       0.05711       0.01190       0.05711       0.01190       0.00000       0.07614       0.00000       0.23794       0.00000       0.00000       0.00000       0.00000       0.00000       0.00000       0.00000       0.00000  
       2         2         1      2013    recall           pt00009      56.40093       0.00000       0.05711       0.01190       0.05711       0.01190       0.00000       0.07614       0.00000       0.23794       0.00000       0.00000       0.00000       0.00000       0.00000       0.00000       0.00000       0.00000  
       3         3         1      2013    recall           pt00009      56.40093       0.00000       0.05711       0.01190       0.05711       0.01190       0.00000       0.07614       0.00000       0.23794       0.00000       0.00000       0.00000       0.00000       0.00000       0.00000       0.00000       0.00000  
       4         4         1      2013    recall           pt00009      56.40093       0.00000       0.05711       0.01190       0.05711       0.01190       0.00000       0.07614       0.00000       0.23794       0.00000       0.00000       0.00000       0.00000       0.00000       0.00000       0.00000       0.00000  
       5         5         1      2013    recall           pt00009      56.40093       0.00000       0.05711       0.01190       0.05711       0.01190       0.00000       0.07614       0.00000       0.23794       0.00000       0.00000       0.00000       0.00000       0.00000       0.00000       0.00000       0.00000  
       6         6         1      2013    recall           pt00009      56.40093       0.00000       0.05711       0.01190       0.05711       0.01190       0.00000       0.07614       0.00000       0.23794       0.00000       0.00000       0.00000       0.00000       0.00000       0.00000       0.00000       0.00000  
       7         7         1      2013    recall           pt00009      56.40093       0.00000       0.05711       0.01190       0.05711       0.01190       0.00000       0.07614       0.00000       0.23794       0.00000       0.00000       0.00000       0.00000       0.00000       0.00000       0.00000       0.00000  
       8         8         1      2013    recall           pt00009      56.40093       0.00000       0.05711       0.01190       0.05711       0.01190       0.00000       0.07614       0.00000       0.23794       0.00000       0.00000       0.00000       0.00000       0.00000       0.00000       0.00000       0.00000  
       9         9         1      2013    recall           pt00009      56.40093       0.00000       0.05711       0.01190       0.05711       0.01190       0.00000       0.07614       0.00000       0.23794       0.00000       0.00000       0.00000       0.00000       0.00000       0.00000       0.00000       0.00000  
      10        10         1      2013    recall           pt00009      56.40093       0.00000       0.05711       0.01190       0.05711       0.01190       0.00000       0.07614       0.00000       0.23794       0.00000       0.00000       0.00000       0.00000       0.00000       0.00000       0.00000       0.00000  
      11        11         1      2013    recall           pt00009      56.40093       0.00000       0.05711       0.01190       0.05711       0.01190       0.00000       0.07614       0.00000       0.23794       0.00000       0.00000       0.00000       0.00000       0.00000       0.00000       0.00000       0.00000  
      12        12         1      2013    recall           pt00009      56.40093       0.00000       0.05711       0.01190       0.05711       0.01190       0.00000       0.07614       0.00000       0.23794       0.00000       0.00000       0.00000       0.00000       0.00000       0.00000       0.00000       0.00000  
       1         1         1      2014    recall           pt00009      68.99531       0.00000       0.03724       0.00776       0.03724       0.00776       0.00000       0.04965       0.00000       0.15515       0.00000       0.00000       0.00000       0.00000       0.00000       0.00000       0.00000       0.00000  
       2         2         1      2014    recall           pt00009      68.99531       0.00000       0.03724       0.00776       0.03724       0.00776       0.00000       0.04965       0.00000       0.15515       0.00000       0.00000       0.00000       0.00000       0.00000       0.00000       0.00000       0.00000  
       3         3         1      2014    recall           pt00009      68.99531       0.00000       0.03724       0.00776       0.03724       0.00776       0.00000       0.04965       0.00000       0.15515       0.00000       0.00000       0.00000       0.00000       0.00000       0.00000       0.00000       0.00000  
       4         4         1      2014    recall           pt00009      68.99531       0.00000       0.03724       0.00776       0.03724       0.00776       0.00000       0.04965       0.00000       0.15515       0.00000       0.00000       0.00000       0.00000       0.00000       0.00000       0.00000       0.00000  
       5         5         1      2014    recall           pt00009      68.99531       0.00000       0.03724       0.00776       0.03724       0.00776       0.00000       0.04965       0.00000       0.15515       0.00000       0.00000       0.00000       0.00000       0.00000       0.00000       0.00000       0.00000  
       6         6         1      2014    recall           pt00009      68.99531       0.00000       0.03724       0.00776       0.03724       0.00776       0.00000       0.04965       0.00000       0.15515       0.00000       0.00000       0.00000       0.00000       0.00000       0.00000       0.00000       0.00000  
       7         7         1      2014    recall           pt00009      68.99531       0.00000       0.03724       0.00776       0.03724       0.00776       0.00000       0.04965       0.00000       0.15515       0.00000       0.00000       0.00000       0.00000       0.00000       0.00000       0.00000       0.00000  
       8         8         1      2014    recall           pt00009      68.99531       0.00000       0.03724       0.00776       0.03724       0.00776       0.00000       0.04965       0.00000       0.15515       0.00000       0.00000       0.00000       0.00000       0.00000       0.00000       0.00000       0.00000  
[...]
      11        11         1      2014    recall           pt00009      68.99531       0.00000       0.03724       0.00776       0.03724       0.00776       0.00000       0.04965       0.00000       0.15515       0.00000       0.00000       0.00000       0.00000       0.00000       0.00000       0.00000       0.00000  
      12        12         1      2014    recall           pt00009      68.99531       0.00000       0.03724       0.00776       0.03724       0.00776       0.00000       0.04965       0.00000       0.15515       0.00000       0.00000       0.00000       0.00000       0.00000       0.00000       0.00000       0.00000  
       1         1         1      2015    recall           pt00009      72.82839       0.00000       0.06834       0.01424       0.06834       0.01424       0.00000       0.09112       0.00000       0.28476       0.00000       0.00000       0.00000       0.00000       0.00000       0.00000       0.00000       0.00000  
       2         2         1      2015    recall           pt00009      72.82839       0.00000       0.06834       0.01424       0.06834       0.01424       0.00000       0.09112       0.00000       0.28476       0.00000       0.00000       0.00000       0.00000       0.00000       0.00000       0.00000       0.00000  
       3         3         1      2015    recall           pt00009      72.82839       0.00000       0.06834       0.01424       0.06834       0.01424       0.00000       0.09112       0.00000       0.28476       0.00000       0.00000       0.00000       0.00000       0.00000       0.00000       0.00000       0.00000  
       4         4         1      2015    recall           pt00009      72.82839       0.00000       0.06834       0.01424       0.06834       0.01424       0.00000       0.09112       0.00000       0.28476       0.00000       0.00000       0.00000       0.00000       0.00000       0.00000       0.00000       0.00000  
       5         5         1      2015    recall           pt00009      72.82839       0.00000       0.06834       0.01424       0.06834       0.01424       0.00000       0.09112       0.00000       0.28476       0.00000       0.00000       0.00000       0.00000       0.00000       0.00000       0.00000       0.00000  
       6         6         1      2015    recall           pt00009      72.82839       0.00000       0.06834       0.01424       0.06834       0.01424       0.00000       0.09112       0.00000       0.28476       0.00000       0.00000       0.00000       0.00000       0.00000       0.00000       0.00000       0.00000  
       7         7         1      2015    recall           pt00009      72.82839       0.00000       0.06834       0.01424       0.06834       0.01424       0.00000       0.09112       0.00000       0.28476       0.00000       0.00000       0.00000       0.00000       0.00000       0.00000       0.00000       0.00000  
       8         8         1      2015    recall           pt00009      72.82839       0.00000       0.06834       0.01424       0.06834       0.01424       0.00000       0.09112       0.00000       0.28476       0.00000       0.00000       0.00000       0.00000       0.00000       0.00000       0.00000       0.00000  
       9         9         1      2015    recall           pt00009      72.82839       0.00000       0.06834       0.01424       0.06834       0.01424       0.00000       0.09112       0.00000       0.28476       0.00000       0.00000       0.00000       0.00000       0.00000       0.00000       0.00000       0.00000  
      10        10         1      2015    recall           pt00009      72.82839       0.00000       0.06834       0.01424       0.06834       0.01424       0.00000       0.09112       0.00000       0.28476       0.00000       0.00000       0.00000       0.00000       0.00000       0.00000       0.00000       0.00000  
      11        11         1      2015    recall           pt00009      72.82839       0.00000       0.06834       0.01424       0.06834       0.01424       0.00000       0.09112       0.00000       0.28476       0.00000       0.00000       0.00000       0.00000       0.00000       0.00000       0.00000       0.00000  
      12        12         1      2015    recall           pt00009      72.82839       0.00000       0.06834       0.01424       0.06834       0.01424       0.00000       0.09112       0.00000       0.28476       0.00000       0.00000       0.00000       0.00000       0.00000       0.00000       0.00000       0.00000  
       1         1         1      2016    recall           pt00009      85.42277       0.00000       0.05242       0.02207       0.10485       0.02207       0.00000       0.36697       0.00000       0.27592       0.00000       0.00000       0.00000       0.00000       0.00000       0.00000       0.00000       0.00000  
       2         2         1      2016    recall           pt00009      85.42277       0.00000       0.05242       0.02207       0.10485       0.02207       0.00000       0.36697       0.00000       0.27592       0.00000       0.00000       0.00000       0.00000       0.00000       0.00000       0.00000       0.00000  
       3         3         1      2016    recall           pt00009      85.42277       0.00000       0.05242       0.02207       0.10485       0.02207       0.00000       0.36697       0.00000       0.27592       0.00000       0.00000       0.00000       0.00000       0.00000       0.00000       0.00000       0.00000  
       4         4         1      2016    recall           pt00009      85.42277       0.00000       0.05242       0.02207       0.10485       0.02207       0.00000       0.36697       0.00000       0.27592       0.00000       0.00000       0.00000       0.00000       0.00000       0.00000       0.00000       0.00000  
       5         5         1      2016    recall           pt00009      85.42277       0.00000       0.05242       0.02207       0.10485       0.02207       0.00000       0.36697       0.00000       0.27592       0.00000       0.00000       0.00000       0.00000       0.00000       0.00000       0.00000       0.00000  
       6         6         1      2016    recall           pt00009      85.42277       0.00000       0.05242       0.02207       0.10485       0.02207       0.00000       0.36697       0.00000       0.27592       0.00000       0.00000       0.00000       0.00000       0.00000       0.00000       0.00000       0.00000  
       7         7         1      2016    recall           pt00009      85.42277       0.00000       0.05242       0.02207       0.10485       0.02207       0.00000       0.36697       0.00000       0.27592       0.00000       0.00000       0.00000       0.00000       0.00000       0.00000       0.00000       0.00000  
       8         8         1      2016    recall           pt00009      85.42277       0.00000       0.05242       0.02207       0.10485       0.02207       0.00000       0.36697       0.00000       0.27592       0.00000       0.00000       0.00000       0.00000       0.00000       0.00000       0.00000       0.00000  
       9         9         1      2016    recall           pt00009      85.42277       0.00000       0.05242       0.02207       0.10485       0.02207       0.00000       0.36697       0.00000       0.27592       0.00000       0.00000       0.00000       0.00000       0.00000       0.00000       0.00000       0.00000  
      10        10         1      2016    recall           pt00009      85.42277       0.00000       0.05242       0.02207       0.10485       0.02207       0.00000       0.36697       0.00000       0.27592       0.00000       0.00000       0.00000       0.00000       0.00000       0.00000       0.00000       0.00000  
      11        11         1      2016    recall           pt00009      85.42277       0.00000       0.05242       0.02207       0.10485       0.02207       0.00000       0.36697       0.00000       0.27592       0.00000       0.00000       0.00000       0.00000       0.00000       0.00000       0.00000       0.00000  
      12        12         1      2016    recall           pt00009      85.42277       0.00000       0.05242       0.02207       0.10485       0.02207       0.00000       0.36697       0.00000       0.27592       0.00000       0.00000       0.00000       0.00000       0.00000       0.00000       0.00000       0.00000  
       1         1         1      2017    recall           pt00009      95.55303       0.00000       0.07462       0.03142       0.14923       0.03142       0.00000       0.52232       0.00000       0.39272       0.00000       0.00000       0.00000       0.00000       0.00000       0.00000       0.00000       0.00000  
       2         2         1      2017    recall           pt00009      95.55303       0.00000       0.07462       0.03142       0.14923       0.03142       0.00000       0.52232       0.00000       0.39272       0.00000       0.00000       0.00000       0.00000       0.00000       0.00000       0.00000       0.00000  
       3         3         1      2017    recall           pt00009      95.55303       0.00000       0.07462       0.03142       0.14923       0.03142       0.00000       0.52232       0.00000       0.39272       0.00000       0.00000       0.00000       0.00000       0.00000       0.00000       0.00000       0.00000  
       4         4         1      2017    recall           pt00009      95.55303       0.00000       0.07462       0.03142       0.14923       0.03142       0.00000       0.52232       0.00000       0.39272       0.00000       0.00000       0.00000       0.00000       0.00000       0.00000       0.00000       0.00000  
       5         5         1      2017    recall           pt00009      95.55303       0.00000       0.07462       0.03142       0.14923       0.03142       0.00000       0.52232       0.00000       0.39272       0.00000       0.00000       0.00000       0.00000       0.00000       0.00000       0.00000       0.00000  
       6         6         1      2017    recall           pt00009      95.55303       0.00000       0.07462       0.03142       0.14923       0.03142       0.00000       0.52232       0.00000       0.39272       0.00000       0.00000       0.00000       0.00000       0.00000       0.00000       0.00000       0.00000  
       7         7         1      2017    recall           pt00009      95.55303       0.00000       0.07462       0.03142       0.14923       0.03142       0.00000       0.52232       0.00000       0.39272       0.00000       0.00000       0.00000       0.00000       0.00000       0.00000       0.00000       0.00000  
       8         8         1      2017    recall           pt00009      95.55303       0.00000       0.07462       0.03142       0.14923       0.03142       0.00000       0.52232       0.00000       0.39272       0.00000       0.00000       0.00000       0.00000       0.00000       0.00000       0.00000       0.00000  
       9         9         1      2017    recall           pt00009      95.55303       0.00000       0.07462       0.03142       0.14923       0.03142       0.00000       0.52232       0.00000       0.39272       0.00000       0.00000       0.00000       0.00000       0.00000       0.00000       0.00000       0.00000  
      10        10         1      2017    recall           pt00009      95.55303       0.00000       0.07462       0.03142       0.14923       0.03142       0.00000       0.52232       0.00000       0.39272       0.00000       0.00000       0.00000       0.00000       0.00000       0.00000       0.00000       0.00000  
      11        11         1      2017    recall           pt00009      95.55303       0.00000       0.07462       0.03142       0.14923       0.03142       0.00000       0.52232       0.00000       0.39272       0.00000       0.00000       0.00000       0.00000       0.00000       0.00000       0.00000       0.00000  
      12        12         1      2017    recall           pt00009      95.55303       0.00000       0.07462       0.03142       0.14923       0.03142       0.00000       0.52232       0.00000       0.39272       0.00000       0.00000       0.00000       0.00000       0.00000       0.00000       0.00000       0.00000  
       1         1         1      2018    recall           pt00009      49.28237       0.00000       0.02891       0.01217       0.05783       0.01217       0.00000       0.20240       0.00000       0.15218       0.00000       0.00000       0.00000       0.00000       0.00000       0.00000       0.00000       0.00000  
       2         2         1      2018    recall           pt00009      49.28237       0.00000       0.02891       0.01217       0.05783       0.01217       0.00000       0.20240       0.00000       0.15218       0.00000       0.00000       0.00000       0.00000       0.00000       0.00000       0.00000       0.00000  
       3         3         1      2018    recall           pt00009      49.28237       0.00000       0.02891       0.01217       0.05783       0.01217       0.00000       0.20240       0.00000       0.15218       0.00000       0.00000       0.00000       0.00000       0.00000       0.00000       0.00000       0.00000  
       4         4         1      2018    recall           pt00009      49.28237       0.00000       0.02891       0.01217       0.05783       0.01217       0.00000       0.20240       0.00000       0.15218       0.00000       0.00000       0.00000       0.00000       0.00000       0.00000       0.00000       0.00000  
       5         5         1      2018    recall           pt00009      49.28237       0.00000       0.02891       0.01217       0.05783       0.01217       0.00000       0.20240       0.00000       0.15218       0.00000       0.00000       0.00000       0.00000       0.00000       0.00000       0.00000       0.00000  
       6         6         1      2018    recall           pt00009      49.28237       0.00000       0.02891       0.01217       0.05783       0.01217       0.00000       0.20240       0.00000       0.15218       0.00000       0.00000       0.00000       0.00000       0.00000       0.00000       0.00000       0.00000  
       7         7         1      2018    recall           pt00009      49.28237       0.00000       0.02891       0.01217       0.05783       0.01217       0.00000       0.20240       0.00000       0.15218       0.00000       0.00000       0.00000       0.00000       0.00000       0.00000       0.00000       0.00000  
       8         8         1      2018    recall           pt00009      49.28237       0.00000       0.02891       0.01217       0.05783       0.01217       0.00000       0.20240       0.00000       0.15218       0.00000       0.00000       0.00000       0.00000       0.00000       0.00000       0.00000       0.00000  
       9         9         1      2018    recall           pt00009      49.28237       0.00000       0.02891       0.01217       0.05783       0.01217       0.00000       0.20240       0.00000       0.15218       0.00000       0.00000       0.00000       0.00000       0.00000       0.00000       0.00000       0.00000  
      10        10         1      2018    recall           pt00009      49.28237       0.00000       0.02891       0.01217       0.05783       0.01217       0.00000       0.20240       0.00000       0.15218       0.00000       0.00000       0.00000       0.00000       0.00000       0.00000       0.00000       0.00000  
      11        11         1      2018    recall           pt00009      49.28237       0.00000       0.02891       0.01217       0.05783       0.01217       0.00000       0.20240       0.00000       0.15218       0.00000       0.00000       0.00000       0.00000       0.00000       0.00000       0.00000       0.00000  
      12        12         1      2018    recall           pt00009      49.28237       0.00000       0.02891       0.01217       0.05783       0.01217       0.00000       0.20240       0.00000       0.15218       0.00000       0.00000       0.00000       0.00000       0.00000       0.00000       0.00000       0.00000  
       1         1         1      2019    recall           pt00009      45.39454       0.00000       0.03330       0.01402       0.06660       0.01402       0.00000       0.23311       0.00000       0.17527       0.00000       0.00000       0.00000       0.00000       0.00000       0.00000       0.00000       0.00000  
       2         2         1      2019    recall           pt00009      45.39454       0.00000       0.03330       0.01402       0.06660       0.01402       0.00000       0.23311       0.00000       0.17527       0.00000       0.00000       0.00000       0.00000       0.00000       0.00000       0.00000       0.00000  
       3         3         1      2019    recall           pt00009      45.39454       0.00000       0.03330       0.01402       0.06660       0.01402       0.00000       0.23311       0.00000       0.17527       0.00000       0.00000       0.00000       0.00000       0.00000       0.00000       0.00000       0.00000  
       4         4         1      2019    recall           pt00009      45.39454       0.00000       0.03330       0.01402       0.06660       0.01402       0.00000       0.23311       0.00000       0.17527       0.00000       0.00000       0.00000       0.00000       0.00000       0.00000       0.00000       0.00000  
       5         5         1      2019    recall           pt00009      45.39454       0.00000       0.03330       0.01402       0.06660       0.01402       0.00000       0.23311       0.00000       0.17527       0.00000       0.00000       0.00000       0.00000       0.00000       0.00000       0.00000       0.00000  
       6         6         1      2019    recall           pt00009      45.39454       0.00000       0.03330       0.01402       0.06660       0.01402       0.00000       0.23311       0.00000       0.17527       0.00000       0.00000       0.00000       0.00000       0.00000       0.00000       0.00000       0.00000  
       7         7         1      2019    recall           pt00009      45.39454       0.00000       0.03330       0.01402       0.06660       0.01402       0.00000       0.23311       0.00000       0.17527       0.00000       0.00000       0.00000       0.00000       0.00000       0.00000       0.00000       0.00000  
       8         8         1      2019    recall           pt00009      45.39454       0.00000       0.03330       0.01402       0.06660       0.01402       0.00000       0.23311       0.00000       0.17527       0.00000       0.00000       0.00000       0.00000       0.00000       0.00000       0.00000       0.00000  
       9         9         1      2019    recall           pt00009      45.39454       0.00000       0.03330       0.01402       0.06660       0.01402       0.00000       0.23311       0.00000       0.17527       0.00000       0.00000       0.00000       0.00000       0.00000       0.00000       0.00000       0.00000  
      10        10         1      2019    recall           pt00009      45.39454       0.00000       0.03330       0.01402       0.06660       0.01402       0.00000       0.23311       0.00000       0.17527       0.00000       0.00000       0.00000       0.00000       0.00000       0.00000       0.00000       0.00000  
      11        11         1      2019    recall           pt00009      45.39454       0.00000       0.03330       0.01402       0.06660       0.01402       0.00000       0.23311       0.00000       0.17527       0.00000       0.00000       0.00000       0.00000       0.00000       0.00000       0.00000       0.00000  
      12        12         1      2019    recall           pt00009      45.39454       0.00000       0.03330       0.01402       0.06660       0.01402       0.00000       0.23311       0.00000       0.17527       0.00000       0.00000       0.00000       0.00000       0.00000       0.00000       0.00000       0.00000  
