recall.rec: written by SWAT+ editor v2.0.0 on 2022-02-14 13:07
26
    jday        mo    day_mo       iyr    ob_typ           ob_name           flo           sed         ptl_n         ptl_p         no3_n         sol_p          chla         nh3_n         no2_n       cbn_bod           oxy          sand          silt          clay        sm_agg        lg_agg        gravel           tmp  
       1         1         1      1994    recall           pt00002       0.00000       0.00000       0.00000       0.00000       0.00000       0.00000       0.00000       0.00000       0.00000       0.00000       0.00000       0.00000       0.00000       0.00000       0.00000       0.00000       0.00000       0.00000  
       2         2         1      1994    recall           pt00002       0.00000       0.00000       0.00000       0.00000       0.00000       0.00000       0.00000       0.00000       0.00000       0.00000       0.00000       0.00000       0.00000       0.00000       0.00000       0.00000       0.00000       0.00000  
       3         3         1      1994    recall           pt00002       0.00000       0.00000       0.00000       0.00000       0.00000       0.00000       0.00000       0.00000       0.00000       0.00000       0.00000       0.00000       0.00000       0.00000       0.00000       0.00000       0.00000       0.00000  
       4         4         1      1994    recall           pt00002       0.00000       0.00000       0.00000       0.00000       0.00000       0.00000       0.00000       0.00000       0.00000       0.00000       0.00000       0.00000       0.00000       0.00000       0.00000       0.00000       0.00000       0.00000  
       5         5         1      1994    recall           pt00002       0.00000       0.00000       0.00000       0.00000       0.00000       0.00000       0.00000       0.00000       0.00000       0.00000       0.00000       0.00000       0.00000       0.00000       0.00000       0.00000       0.00000       0.00000  
       6         6         1      1994    recall           pt00002       0.00000       0.00000       0.00000       0.00000       0.00000       0.00000       0.00000       0.00000       0.00000       0.00000       0.00000       0.00000       0.00000       0.00000       0.00000       0.00000       0.00000       0.00000  
       7         7         1      1994    recall           pt00002       0.00000       0.00000       0.00000       0.00000       0.00000       0.00000       0.00000       0.00000       0.00000       0.00000       0.00000       0.00000       0.00000       0.00000       0.00000       0.00000       0.00000       0.00000  
       8         8         1      1994    recall           pt00002       0.00000       0.00000       0.00000       0.00000       0.00000       0.00000       0.00000       0.00000       0.00000       0.00000       0.00000       0.00000       0.00000       0.00000       0.00000       0.00000       0.00000       0.00000  
       9         9         1      1994    recall           pt00002       0.00000       0.00000       0.00000       0.00000       0.00000       0.00000       0.00000       0.00000       0.00000       0.00000       0.00000       0.00000       0.00000       0.00000       0.00000       0.00000       0.00000       0.00000  
      10        10         1      1994    recall           pt00002       0.00000       0.00000       0.00000       0.00000       0.00000       0.00000       0.00000       0.00000       0.00000       0.00000       0.00000       0.00000       0.00000       0.00000       0.00000       0.00000       0.00000       0.00000  
      11        11         1      1994    recall           pt00002       0.00000       0.00000       0.00000       0.00000       0.00000       0.00000       0.00000       0.00000       0.00000       0.00000       0.00000       0.00000       0.00000       0.00000       0.00000       0.00000       0.00000       0.00000  
      12        12         1      1994    recall           pt00002       0.00000       0.00000       0.00000       0.00000       0.00000       0.00000       0.00000       0.00000       0.00000       0.00000       0.00000       0.00000       0.00000       0.00000       0.00000       0.00000       0.00000       0.00000  
       1         1         1      1995    recall           pt00002       0.00000       0.00000       0.00000       0.00000       0.00000       0.00000       0.00000       0.00000       0.00000       0.00000       0.00000       0.00000       0.00000       0.00000       0.00000       0.00000       0.00000       0.00000  
       2         2         1      1995    recall           pt00002       0.00000       0.00000       0.00000       0.00000       0.00000       0.00000       0.00000       0.00000       0.00000       0.00000       0.00000       0.00000       0.00000       0.00000       0.00000       0.00000       0.00000       0.00000  
       3         3         1      1995    recall           pt00002       0.00000       0.00000       0.00000       0.00000       0.00000       0.00000       0.00000       0.00000       0.00000       0.00000       0.00000       0.00000       0.00000       0.00000       0.00000       0.00000       0.00000       0.00000  
       4         4         1      1995    recall           pt00002       0.00000       0.00000       0.00000       0.00000       0.00000       0.00000       0.00000       0.00000       0.00000       0.00000       0.00000       0.00000       0.00000       0.00000       0.00000       0.00000       0.00000       0.00000  
       5         5         1      1995    recall           pt00002       0.00000       0.00000       0.00000       0.00000       0.00000       0.00000       0.00000       0.00000       0.00000       0.00000       0.00000       0.00000       0.00000       0.00000       0.00000       0.00000       0.00000       0.00000  
       6         6         1      1995    recall           pt00002       0.00000       0.00000       0.00000       0.00000       0.00000       0.00000       0.00000       0.00000       0.00000       0.00000       0.00000       0.00000       0.00000       0.00000       0.00000       0.00000       0.00000       0.00000  
       7         7         1      1995    recall           pt00002       0.00000       0.00000       0.00000       0.00000       0.00000       0.00000       0.00000       0.00000       0.00000       0.00000       0.00000       0.00000       0.00000       0.00000       0.00000       0.00000       0.00000       0.00000  
       8         8         1      1995    recall           pt00002       0.00000       0.00000       0.00000       0.00000       0.00000       0.00000       0.00000       0.00000       0.00000       0.00000       0.00000       0.00000       0.00000       0.00000       0.00000       0.00000       0.00000       0.00000  
       9         9         1      1995    recall           pt00002       0.00000       0.00000       0.00000       0.00000       0.00000       0.00000       0.00000       0.00000       0.00000       0.00000       0.00000       0.00000       0.00000       0.00000       0.00000       0.00000       0.00000       0.00000  
      10        10         1      1995    recall           pt00002       0.00000       0.00000       0.00000       0.00000       0.00000       0.00000       0.00000       0.00000       0.00000       0.00000       0.00000       0.00000       0.00000       0.00000       0.00000       0.00000       0.00000       0.00000  
      11        11         1      1995    recall           pt00002       0.00000       0.00000       0.00000       0.00000       0.00000       0.00000       0.00000       0.00000       0.00000       0.00000       0.00000       0.00000       0.00000       0.00000       0.00000       0.00000       0.00000       0.00000  
      12        12         1      1995    recall           pt00002       0.00000       0.00000       0.00000       0.00000       0.00000       0.00000       0.00000       0.00000       0.00000       0.00000       0.00000       0.00000       0.00000       0.00000       0.00000       0.00000       0.00000       0.00000  
       1         1         1      1996    recall           pt00002       0.00000       0.00000       0.00000       0.00000       0.00000       0.00000       0.00000       0.00000       0.00000       0.00000       0.00000       0.00000       0.00000       0.00000       0.00000       0.00000       0.00000       0.00000  
       2         2         1      1996    recall           pt00002       0.00000       0.00000       0.00000       0.00000       0.00000       0.00000       0.00000       0.00000       0.00000       0.00000       0.00000       0.00000       0.00000       0.00000       0.00000       0.00000       0.00000       0.00000  
       3         3         1      1996    recall           pt00002       0.00000       0.00000       0.00000       0.00000       0.00000       0.00000       0.00000       0.00000       0.00000       0.00000       0.00000       0.00000       0.00000       0.00000       0.00000       0.00000       0.00000       0.00000  
       4         4         1      1996    recall           pt00002       0.00000       0.00000       0.00000       0.00000       0.00000       0.00000       0.00000       0.00000       0.00000       0.00000       0.00000       0.00000       0.00000       0.00000       0.00000       0.00000       0.00000       0.00000  
       5         5         1      1996    recall           pt00002       0.00000       0.00000       0.00000       0.00000       0.00000       0.00000       0.00000       0.00000       0.00000       0.00000       0.00000       0.00000       0.00000       0.00000       0.00000       0.00000       0.00000       0.00000  
       6         6         1      1996    recall           pt00002       0.00000       0.00000       0.00000       0.00000       0.00000       0.00000       0.00000       0.00000       0.00000       0.00000       0.00000       0.00000       0.00000       0.00000       0.00000       0.00000       0.00000       0.00000  
       7         7         1      1996    recall           pt00002       0.00000       0.00000       0.00000       0.00000       0.00000       0.00000       0.00000       0.00000       0.00000       0.00000       0.00000       0.00000       0.00000       0.00000       0.00000       0.00000       0.00000       0.00000  
       8         8         1      1996    recall           pt00002       0.00000       0.00000       0.00000       0.00000       0.00000       0.00000       0.00000       0.00000       0.00000       0.00000       0.00000       0.00000       0.00000       0.00000       0.00000       0.00000       0.00000       0.00000  
       9         9         1      1996    recall           pt00002       0.00000       0.00000       0.00000       0.00000       0.00000       0.00000       0.00000       0.00000       0.00000       0.00000       0.00000       0.00000       0.00000       0.00000       0.00000       0.00000       0.00000       0.00000  
      10        10         1      1996    recall           pt00002       0.00000       0.00000       0.00000       0.00000       0.00000       0.00000       0.00000       0.00000       0.00000       0.00000       0.00000       0.00000       0.00000       0.00000       0.00000       0.00000       0.00000       0.00000  
      11        11         1      1996    recall           pt00002       0.00000       0.00000       0.00000       0.00000       0.00000       0.00000       0.00000       0.00000       0.00000       0.00000       0.00000       0.00000       0.00000       0.00000       0.00000       0.00000       0.00000       0.00000  
      12        12         1      1996    recall           pt00002       0.00000       0.00000       0.00000       0.00000       0.00000       0.00000       0.00000       0.00000       0.00000       0.00000       0.00000       0.00000       0.00000       0.00000       0.00000       0.00000       0.00000       0.00000  
       1         1         1      1997    recall           pt00002      23.54602       0.00054       0.00000       0.00000       0.00000       0.00000       0.00000       0.00000       0.00000       0.00000       0.00000       0.00000       0.00000       0.00000       0.00000       0.00000       0.00000       0.00000  
       2         2         1      1997    recall           pt00002      23.54602       0.00054       0.00000       0.00000       0.00000       0.00000       0.00000       0.00000       0.00000       0.00000       0.00000       0.00000       0.00000       0.00000       0.00000       0.00000       0.00000       0.00000  
       3         3         1      1997    recall           pt00002      23.54602       0.00054       0.00000       0.00000       0.00000       0.00000       0.00000       0.00000       0.00000       0.00000       0.00000       0.00000       0.00000       0.00000       0.00000       0.00000       0.00000       0.00000  
       4         4         1      1997    recall           pt00002      23.54602       0.00054       0.00000       0.00000       0.00000       0.00000       0.00000       0.00000       0.00000       0.00000       0.00000       0.00000       0.00000       0.00000       0.00000       0.00000       0.00000       0.00000  
       5         5         1      1997    recall           pt00002      23.54602       0.00054       0.00000       0.00000       0.00000       0.00000       0.00000       0.00000       0.00000       0.00000       0.00000       0.00000       0.00000       0.00000       0.00000       0.00000       0.00000       0.00000  
       6         6         1      1997    recall           pt00002      23.54602       0.00054       0.00000       0.00000       0.00000       0.00000       0.00000       0.00000       0.00000       0.00000       0.00000       0.00000       0.00000       0.00000       0.00000       0.00000       0.00000       0.00000  
       7         7         1      1997    recall           pt00002      23.54602       0.00054       0.00000       0.00000       0.00000       0.00000       0.00000       0.00000       0.00000       0.00000       0.00000       0.00000       0.00000       0.00000       0.00000       0.00000       0.00000       0.00000  
       8         8         1      1997    recall           pt00002      23.54602       0.00054       0.00000       0.00000       0.00000       0.00000       0.00000       0.00000       0.00000       0.00000       0.00000       0.00000       0.00000       0.00000       0.00000       0.00000       0.00000       0.00000  
       9         9         1      1997    recall           pt00002      23.54602       0.00054       0.00000       0.00000       0.00000       0.00000       0.00000       0.00000       0.00000       0.00000       0.00000       0.00000       0.00000       0.00000       0.00000       0.00000       0.00000       0.00000  
      10        10         1      1997    recall           pt00002      23.54602       0.00054       0.00000       0.00000       0.00000       0.00000       0.00000       0.00000       0.00000       0.00000       0.00000       0.00000       0.00000       0.00000       0.00000       0.00000       0.00000       0.00000  
      11        11         1      1997    recall           pt00002      23.54602       0.00054       0.00000       0.00000       0.00000       0.00000       0.00000       0.00000       0.00000       0.00000       0.00000       0.00000       0.00000       0.00000       0.00000       0.00000       0.00000       0.00000  
      12        12         1      1997    recall           pt00002      23.54602       0.00054       0.00000       0.00000       0.00000       0.00000       0.00000       0.00000       0.00000       0.00000       0.00000       0.00000       0.00000       0.00000       0.00000       0.00000       0.00000       0.00000  
       1         1         1      1998    recall           pt00002      27.37909       0.00039       0.36277       0.13284       0.39338       0.13635       0.00000       0.65655       0.00055       0.67298       0.00000       0.00000       0.00000       0.00000       0.00000       0.00000       0.00000       0.00000  
       2         2         1      1998    recall           pt00002      27.37909       0.00039       0.36277       0.13284       0.39338       0.13635       0.00000       0.65655       0.00055       0.67298       0.00000       0.00000       0.00000       0.00000       0.00000       0.00000       0.00000       0.00000  
       3         3         1      1998    recall           pt00002      27.37909       0.00039       0.36277       0.13284       0.39338       0.13635       0.00000       0.65655       0.00055       0.67298       0.00000       0.00000       0.00000       0.00000       0.00000       0.00000       0.00000       0.00000  
       4         4         1      1998    recall           pt00002      27.37909       0.00039       0.36277       0.13284       0.39338       0.13635       0.00000       0.65655       0.00055       0.67298       0.00000       0.00000       0.00000       0.00000       0.00000       0.00000       0.00000       0.00000  
       5         5         1      1998    recall           pt00002      27.37909       0.00039       0.36277       0.13284       0.39338       0.13635       0.00000       0.65655       0.00055       0.67298       0.00000       0.00000       0.00000       0.00000       0.00000       0.00000       0.00000       0.00000  
       6         6         1      1998    recall           pt00002      27.37909       0.00039       0.36277       0.13284       0.39338       0.13635       0.00000       0.65655       0.00055       0.67298       0.00000       0.00000       0.00000       0.00000       0.00000       0.00000       0.00000       0.00000  
       7         7         1      1998    recall           pt00002      27.37909       0.00039       0.36277       0.13284       0.39338       0.13635       0.00000       0.65655       0.00055       0.67298       0.00000       0.00000       0.00000       0.00000       0.00000       0.00000       0.00000       0.00000  
       8         8         1      1998    recall           pt00002      27.37909       0.00039       0.36277       0.13284       0.39338       0.13635       0.00000       0.65655       0.00055       0.67298       0.00000       0.00000       0.00000       0.00000       0.00000       0.00000       0.00000       0.00000  
       9         9         1      1998    recall           pt00002      27.37909       0.00039       0.36277       0.13284       0.39338       0.13635       0.00000       0.65655       0.00055       0.67298       0.00000       0.00000       0.00000       0.00000       0.00000       0.00000       0.00000       0.00000  
      10        10         1      1998    recall           pt00002      27.37909       0.00039       0.36277       0.13284       0.39338       0.13635       0.00000       0.65655       0.00055       0.67298       0.00000       0.00000       0.00000       0.00000       0.00000       0.00000       0.00000       0.00000  
      11        11         1      1998    recall           pt00002      27.37909       0.00039       0.36277       0.13284       0.39338       0.13635       0.00000       0.65655       0.00055       0.67298       0.00000       0.00000       0.00000       0.00000       0.00000       0.00000       0.00000       0.00000  
      12        12         1      1998    recall           pt00002      27.37909       0.00039       0.36277       0.13284       0.39338       0.13635       0.00000       0.65655       0.00055       0.67298       0.00000       0.00000       0.00000       0.00000       0.00000       0.00000       0.00000       0.00000  
       1         1         1      1999    recall           pt00002      14.51092       0.00014       0.44549       0.05949       0.04063       0.04498       0.00000       0.06095       0.00145       0.26120       0.00000       0.00000       0.00000       0.00000       0.00000       0.00000       0.00000       0.00000  
       2         2         1      1999    recall           pt00002      14.51092       0.00014       0.44549       0.05949       0.04063       0.04498       0.00000       0.06095       0.00145       0.26120       0.00000       0.00000       0.00000       0.00000       0.00000       0.00000       0.00000       0.00000  
       3         3         1      1999    recall           pt00002      14.51092       0.00014       0.44549       0.05949       0.04063       0.04498       0.00000       0.06095       0.00145       0.26120       0.00000       0.00000       0.00000       0.00000       0.00000       0.00000       0.00000       0.00000  
       4         4         1      1999    recall           pt00002      14.51092       0.00014       0.44549       0.05949       0.04063       0.04498       0.00000       0.06095       0.00145       0.26120       0.00000       0.00000       0.00000       0.00000       0.00000       0.00000       0.00000       0.00000  
       5         5         1      1999    recall           pt00002      14.51092       0.00014       0.44549       0.05949       0.04063       0.04498       0.00000       0.06095       0.00145       0.26120       0.00000       0.00000       0.00000       0.00000       0.00000       0.00000       0.00000       0.00000  
       6         6         1      1999    recall           pt00002      14.51092       0.00014       0.44549       0.05949       0.04063       0.04498       0.00000       0.06095       0.00145       0.26120       0.00000       0.00000       0.00000       0.00000       0.00000       0.00000       0.00000       0.00000  
       7         7         1      1999    recall           pt00002      14.51092       0.00014       0.44549       0.05949       0.04063       0.04498       0.00000       0.06095       0.00145       0.26120       0.00000       0.00000       0.00000       0.00000       0.00000       0.00000       0.00000       0.00000  
       8         8         1      1999    recall           pt00002      14.51092       0.00014       0.44549       0.05949       0.04063       0.04498       0.00000       0.06095       0.00145       0.26120       0.00000       0.00000       0.00000       0.00000       0.00000       0.00000       0.00000       0.00000  
       9         9         1      1999    recall           pt00002      14.51092       0.00014       0.44549       0.05949       0.04063       0.04498       0.00000       0.06095       0.00145       0.26120       0.00000       0.00000       0.00000       0.00000       0.00000       0.00000       0.00000       0.00000  
      10        10         1      1999    recall           pt00002      14.51092       0.00014       0.44549       0.05949       0.04063       0.04498       0.00000       0.06095       0.00145       0.26120       0.00000       0.00000       0.00000       0.00000       0.00000       0.00000       0.00000       0.00000  
      11        11         1      1999    recall           pt00002      14.51092       0.00014       0.44549       0.05949       0.04063       0.04498       0.00000       0.06095       0.00145       0.26120       0.00000       0.00000       0.00000       0.00000       0.00000       0.00000       0.00000       0.00000  
      12        12         1      1999    recall           pt00002      14.51092       0.00014       0.44549       0.05949       0.04063       0.04498       0.00000       0.06095       0.00145       0.26120       0.00000       0.00000       0.00000       0.00000       0.00000       0.00000       0.00000       0.00000  
       1         1         1      2000    recall           pt00002      12.59438       0.00010       0.12708       0.00000       0.03652       0.06297       0.00000       0.14861       0.00252       0.14987       0.00000       0.00000       0.00000       0.00000       0.00000       0.00000       0.00000       0.00000  
       2         2         1      2000    recall           pt00002      12.59438       0.00010       0.12708       0.00000       0.03652       0.06297       0.00000       0.14861       0.00252       0.14987       0.00000       0.00000       0.00000       0.00000       0.00000       0.00000       0.00000       0.00000  
       3         3         1      2000    recall           pt00002      12.59438       0.00010       0.12708       0.00000       0.03652       0.06297       0.00000       0.14861       0.00252       0.14987       0.00000       0.00000       0.00000       0.00000       0.00000       0.00000       0.00000       0.00000  
       4         4         1      2000    recall           pt00002      12.59438       0.00010       0.12708       0.00000       0.03652       0.06297       0.00000       0.14861       0.00252       0.14987       0.00000       0.00000       0.00000       0.00000       0.00000       0.00000       0.00000       0.00000  
       5         5         1      2000    recall           pt00002      12.59438       0.00010       0.12708       0.00000       0.03652       0.06297       0.00000       0.14861       0.00252       0.14987       0.00000       0.00000       0.00000       0.00000       0.00000       0.00000       0.00000       0.00000  
       6         6         1      2000    recall           pt00002      12.59438       0.00010       0.12708       0.00000       0.03652       0.06297       0.00000       0.14861       0.00252       0.14987       0.00000       0.00000       0.00000       0.00000       0.00000       0.00000       0.00000       0.00000  
       7         7         1      2000    recall           pt00002      12.59438       0.00010       0.12708       0.00000       0.03652       0.06297       0.00000       0.14861       0.00252       0.14987       0.00000       0.00000       0.00000       0.00000       0.00000       0.00000       0.00000       0.00000  
       8         8         1      2000    recall           pt00002      12.59438       0.00010       0.12708       0.00000       0.03652       0.06297       0.00000       0.14861       0.00252       0.14987       0.00000       0.00000       0.00000       0.00000       0.00000       0.00000       0.00000       0.00000  
       9         9         1      2000    recall           pt00002      12.59438       0.00010       0.12708       0.00000       0.03652       0.06297       0.00000       0.14861       0.00252       0.14987       0.00000       0.00000       0.00000       0.00000       0.00000       0.00000       0.00000       0.00000  
      10        10         1      2000    recall           pt00002      12.59438       0.00010       0.12708       0.00000       0.03652       0.06297       0.00000       0.14861       0.00252       0.14987       0.00000       0.00000       0.00000       0.00000       0.00000       0.00000       0.00000       0.00000  
      11        11         1      2000    recall           pt00002      12.59438       0.00010       0.12708       0.00000       0.03652       0.06297       0.00000       0.14861       0.00252       0.14987       0.00000       0.00000       0.00000       0.00000       0.00000       0.00000       0.00000       0.00000  
      12        12         1      2000    recall           pt00002      12.59438       0.00010       0.12708       0.00000       0.03652       0.06297       0.00000       0.14861       0.00252       0.14987       0.00000       0.00000       0.00000       0.00000       0.00000       0.00000       0.00000       0.00000  
       1         1         1      2001    recall           pt00002      12.04680       0.00013       0.27852       0.01060       0.03614       0.05782       0.00000       0.04096       0.00361       0.17106       0.00000       0.00000       0.00000       0.00000       0.00000       0.00000       0.00000       0.00000  
       2         2         1      2001    recall           pt00002      12.04680       0.00013       0.27852       0.01060       0.03614       0.05782       0.00000       0.04096       0.00361       0.17106       0.00000       0.00000       0.00000       0.00000       0.00000       0.00000       0.00000       0.00000  
       3         3         1      2001    recall           pt00002      12.04680       0.00013       0.27852       0.01060       0.03614       0.05782       0.00000       0.04096       0.00361       0.17106       0.00000       0.00000       0.00000       0.00000       0.00000       0.00000       0.00000       0.00000  
       4         4         1      2001    recall           pt00002      12.04680       0.00013       0.27852       0.01060       0.03614       0.05782       0.00000       0.04096       0.00361       0.17106       0.00000       0.00000       0.00000       0.00000       0.00000       0.00000       0.00000       0.00000  
       5         5         1      2001    recall           pt00002      12.04680       0.00013       0.27852       0.01060       0.03614       0.05782       0.00000       0.04096       0.00361       0.17106       0.00000       0.00000       0.00000       0.00000       0.00000       0.00000       0.00000       0.00000  
       6         6         1      2001    recall           pt00002      12.04680       0.00013       0.27852       0.01060       0.03614       0.05782       0.00000       0.04096       0.00361       0.17106       0.00000       0.00000       0.00000       0.00000       0.00000       0.00000       0.00000       0.00000  
       7         7         1      2001    recall           pt00002      12.04680       0.00013       0.27852       0.01060       0.03614       0.05782       0.00000       0.04096       0.00361       0.17106       0.00000       0.00000       0.00000       0.00000       0.00000       0.00000       0.00000       0.00000  
       8         8         1      2001    recall           pt00002      12.04680       0.00013       0.27852       0.01060       0.03614       0.05782       0.00000       0.04096       0.00361       0.17106       0.00000       0.00000       0.00000       0.00000       0.00000       0.00000       0.00000       0.00000  
       9         9         1      2001    recall           pt00002      12.04680       0.00013       0.27852       0.01060       0.03614       0.05782       0.00000       0.04096       0.00361       0.17106       0.00000       0.00000       0.00000       0.00000       0.00000       0.00000       0.00000       0.00000  
      10        10         1      2001    recall           pt00002      12.04680       0.00013       0.27852       0.01060       0.03614       0.05782       0.00000       0.04096       0.00361       0.17106       0.00000       0.00000       0.00000       0.00000       0.00000       0.00000       0.00000       0.00000  
      11        11         1      2001    recall           pt00002      12.04680       0.00013       0.27852       0.01060       0.03614       0.05782       0.00000       0.04096       0.00361       0.17106       0.00000       0.00000       0.00000       0.00000       0.00000       0.00000       0.00000       0.00000  
      12        12         1      2001    recall           pt00002      12.04680       0.00013       0.27852       0.01060       0.03614       0.05782       0.00000       0.04096       0.00361       0.17106       0.00000       0.00000       0.00000       0.00000       0.00000       0.00000       0.00000       0.00000  
       1         1         1      2002    recall           pt00002      11.77301       0.00014       0.26018       0.00471       0.04121       0.06122       0.00000       0.04238       0.00235       0.16482       0.00000       0.00000       0.00000       0.00000       0.00000       0.00000       0.00000       0.00000  
       2         2         1      2002    recall           pt00002      11.77301       0.00014       0.26018       0.00471       0.04121       0.06122       0.00000       0.04238       0.00235       0.16482       0.00000       0.00000       0.00000       0.00000       0.00000       0.00000       0.00000       0.00000  
       3         3         1      2002    recall           pt00002      11.77301       0.00014       0.26018       0.00471       0.04121       0.06122       0.00000       0.04238       0.00235       0.16482       0.00000       0.00000       0.00000       0.00000       0.00000       0.00000       0.00000       0.00000  
       4         4         1      2002    recall           pt00002      11.77301       0.00014       0.26018       0.00471       0.04121       0.06122       0.00000       0.04238       0.00235       0.16482       0.00000       0.00000       0.00000       0.00000       0.00000       0.00000       0.00000       0.00000  
       5         5         1      2002    recall           pt00002      11.77301       0.00014       0.26018       0.00471       0.04121       0.06122       0.00000       0.04238       0.00235       0.16482       0.00000       0.00000       0.00000       0.00000       0.00000       0.00000       0.00000       0.00000  
       6         6         1      2002    recall           pt00002      11.77301       0.00014       0.26018       0.00471       0.04121       0.06122       0.00000       0.04238       0.00235       0.16482       0.00000       0.00000       0.00000       0.00000       0.00000       0.00000       0.00000       0.00000  
       7         7         1      2002    recall           pt00002      11.77301       0.00014       0.26018       0.00471       0.04121       0.06122       0.00000       0.04238       0.00235       0.16482       0.00000       0.00000       0.00000       0.00000       0.00000       0.00000       0.00000       0.00000  
       8         8         1      2002    recall           pt00002      11.77301       0.00014       0.26018       0.00471       0.04121       0.06122       0.00000       0.04238       0.00235       0.16482       0.00000       0.00000       0.00000       0.00000       0.00000       0.00000       0.00000       0.00000  
       9         9         1      2002    recall           pt00002      11.77301       0.00014       0.26018       0.00471       0.04121       0.06122       0.00000       0.04238       0.00235       0.16482       0.00000       0.00000       0.00000       0.00000       0.00000       0.00000       0.00000       0.00000  
      10        10         1      2002    recall           pt00002      11.77301       0.00014       0.26018       0.00471       0.04121       0.06122       0.00000       0.04238       0.00235       0.16482       0.00000       0.00000       0.00000       0.00000       0.00000       0.00000       0.00000       0.00000  
      11        11         1      2002    recall           pt00002      11.77301       0.00014       0.26018       0.00471       0.04121       0.06122       0.00000       0.04238       0.00235       0.16482       0.00000       0.00000       0.00000       0.00000       0.00000       0.00000       0.00000       0.00000  
      12        12         1      2002    recall           pt00002      11.77301       0.00014       0.26018       0.00471       0.04121       0.06122       0.00000       0.04238       0.00235       0.16482       0.00000       0.00000       0.00000       0.00000       0.00000       0.00000       0.00000       0.00000  
       1         1         1      2003    recall           pt00002      11.49922       0.00015       0.02047       0.00000       0.05520       0.06785       0.00000       0.12189       0.00287       0.09544       0.00000       0.00000       0.00000       0.00000       0.00000       0.00000       0.00000       0.00000  
       2         2         1      2003    recall           pt00002      11.49922       0.00015       0.02047       0.00000       0.05520       0.06785       0.00000       0.12189       0.00287       0.09544       0.00000       0.00000       0.00000       0.00000       0.00000       0.00000       0.00000       0.00000  
       3         3         1      2003    recall           pt00002      11.49922       0.00015       0.02047       0.00000       0.05520       0.06785       0.00000       0.12189       0.00287       0.09544       0.00000       0.00000       0.00000       0.00000       0.00000       0.00000       0.00000       0.00000  
       4         4         1      2003    recall           pt00002      11.49922       0.00015       0.02047       0.00000       0.05520       0.06785       0.00000       0.12189       0.00287       0.09544       0.00000       0.00000       0.00000       0.00000       0.00000       0.00000       0.00000       0.00000  
       5         5         1      2003    recall           pt00002      11.49922       0.00015       0.02047       0.00000       0.05520       0.06785       0.00000       0.12189       0.00287       0.09544       0.00000       0.00000       0.00000       0.00000       0.00000       0.00000       0.00000       0.00000  
       6         6         1      2003    recall           pt00002      11.49922       0.00015       0.02047       0.00000       0.05520       0.06785       0.00000       0.12189       0.00287       0.09544       0.00000       0.00000       0.00000       0.00000       0.00000       0.00000       0.00000       0.00000  
       7         7         1      2003    recall           pt00002      11.49922       0.00015       0.02047       0.00000       0.05520       0.06785       0.00000       0.12189       0.00287       0.09544       0.00000       0.00000       0.00000       0.00000       0.00000       0.00000       0.00000       0.00000  
       8         8         1      2003    recall           pt00002      11.49922       0.00015       0.02047       0.00000       0.05520       0.06785       0.00000       0.12189       0.00287       0.09544       0.00000       0.00000       0.00000       0.00000       0.00000       0.00000       0.00000       0.00000  
       9         9         1      2003    recall           pt00002      11.49922       0.00015       0.02047       0.00000       0.05520       0.06785       0.00000       0.12189       0.00287       0.09544       0.00000       0.00000       0.00000       0.00000       0.00000       0.00000       0.00000       0.00000  
      10        10         1      2003    recall           pt00002      11.49922       0.00015       0.02047       0.00000       0.05520       0.06785       0.00000       0.12189       0.00287       0.09544       0.00000       0.00000       0.00000       0.00000       0.00000       0.00000       0.00000       0.00000  
      11        11         1      2003    recall           pt00002      11.49922       0.00015       0.02047       0.00000       0.05520       0.06785       0.00000       0.12189       0.00287       0.09544       0.00000       0.00000       0.00000       0.00000       0.00000       0.00000       0.00000       0.00000  
      12        12         1      2003    recall           pt00002      11.49922       0.00015       0.02047       0.00000       0.05520       0.06785       0.00000       0.12189       0.00287       0.09544       0.00000       0.00000       0.00000       0.00000       0.00000       0.00000       0.00000       0.00000  
       1         1         1      2004    recall           pt00002      11.49922       0.00015       0.07314       0.00000       0.04715       0.05405       0.00000       0.08279       0.00460       0.09889       0.00000       0.00000       0.00000       0.00000       0.00000       0.00000       0.00000       0.00000  
       2         2         1      2004    recall           pt00002      11.49922       0.00015       0.07314       0.00000       0.04715       0.05405       0.00000       0.08279       0.00460       0.09889       0.00000       0.00000       0.00000       0.00000       0.00000       0.00000       0.00000       0.00000  
       3         3         1      2004    recall           pt00002      11.49922       0.00015       0.07314       0.00000       0.04715       0.05405       0.00000       0.08279       0.00460       0.09889       0.00000       0.00000       0.00000       0.00000       0.00000       0.00000       0.00000       0.00000  
       4         4         1      2004    recall           pt00002      11.49922       0.00015       0.07314       0.00000       0.04715       0.05405       0.00000       0.08279       0.00460       0.09889       0.00000       0.00000       0.00000       0.00000       0.00000       0.00000       0.00000       0.00000  
       5         5         1      2004    recall           pt00002      11.49922       0.00015       0.07314       0.00000       0.04715       0.05405       0.00000       0.08279       0.00460       0.09889       0.00000       0.00000       0.00000       0.00000       0.00000       0.00000       0.00000       0.00000  
       6         6         1      2004    recall           pt00002      11.49922       0.00015       0.07314       0.00000       0.04715       0.05405       0.00000       0.08279       0.00460       0.09889       0.00000       0.00000       0.00000       0.00000       0.00000       0.00000       0.00000       0.00000  
       7         7         1      2004    recall           pt00002      11.49922       0.00015       0.07314       0.00000       0.04715       0.05405       0.00000       0.08279       0.00460       0.09889       0.00000       0.00000       0.00000       0.00000       0.00000       0.00000       0.00000       0.00000  
       8         8         1      2004    recall           pt00002      11.49922       0.00015       0.07314       0.00000       0.04715       0.05405       0.00000       0.08279       0.00460       0.09889       0.00000       0.00000       0.00000       0.00000       0.00000       0.00000       0.00000       0.00000  
       9         9         1      2004    recall           pt00002      11.49922       0.00015       0.07314       0.00000       0.04715       0.05405       0.00000       0.08279       0.00460       0.09889       0.00000       0.00000       0.00000       0.00000       0.00000       0.00000       0.00000       0.00000  
      10        10         1      2004    recall           pt00002      11.49922       0.00015       0.07314       0.00000       0.04715       0.05405       0.00000       0.08279       0.00460       0.09889       0.00000       0.00000       0.00000       0.00000       0.00000       0.00000       0.00000       0.00000  
      11        11         1      2004    recall           pt00002      11.49922       0.00015       0.07314       0.00000       0.04715       0.05405       0.00000       0.08279       0.00460       0.09889       0.00000       0.00000       0.00000       0.00000       0.00000       0.00000       0.00000       0.00000  
      12        12         1      2004    recall           pt00002      11.49922       0.00015       0.07314       0.00000       0.04715       0.05405       0.00000       0.08279       0.00460       0.09889       0.00000       0.00000       0.00000       0.00000       0.00000       0.00000       0.00000       0.00000  
       1         1         1      2005    recall           pt00002      10.95164       0.00015       0.13580       0.01533       0.04600       0.02847       0.00000       0.04490       0.00329       0.10952       0.00000       0.00000       0.00000       0.00000       0.00000       0.00000       0.00000       0.00000  
       2         2         1      2005    recall           pt00002      10.95164       0.00015       0.13580       0.01533       0.04600       0.02847       0.00000       0.04490       0.00329       0.10952       0.00000       0.00000       0.00000       0.00000       0.00000       0.00000       0.00000       0.00000  
       3         3         1      2005    recall           pt00002      10.95164       0.00015       0.13580       0.01533       0.04600       0.02847       0.00000       0.04490       0.00329       0.10952       0.00000       0.00000       0.00000       0.00000       0.00000       0.00000       0.00000       0.00000  
       4         4         1      2005    recall           pt00002      10.95164       0.00015       0.13580       0.01533       0.04600       0.02847       0.00000       0.04490       0.00329       0.10952       0.00000       0.00000       0.00000       0.00000       0.00000       0.00000       0.00000       0.00000  
       5         5         1      2005    recall           pt00002      10.95164       0.00015       0.13580       0.01533       0.04600       0.02847       0.00000       0.04490       0.00329       0.10952       0.00000       0.00000       0.00000       0.00000       0.00000       0.00000       0.00000       0.00000  
       6         6         1      2005    recall           pt00002      10.95164       0.00015       0.13580       0.01533       0.04600       0.02847       0.00000       0.04490       0.00329       0.10952       0.00000       0.00000       0.00000       0.00000       0.00000       0.00000       0.00000       0.00000  
       7         7         1      2005    recall           pt00002      10.95164       0.00015       0.13580       0.01533       0.04600       0.02847       0.00000       0.04490       0.00329       0.10952       0.00000       0.00000       0.00000       0.00000       0.00000       0.00000       0.00000       0.00000  
       8         8         1      2005    recall           pt00002      10.95164       0.00015       0.13580       0.01533       0.04600       0.02847       0.00000       0.04490       0.00329       0.10952       0.00000       0.00000       0.00000       0.00000       0.00000       0.00000       0.00000       0.00000  
       9         9         1      2005    recall           pt00002      10.95164       0.00015       0.13580       0.01533       0.04600       0.02847       0.00000       0.04490       0.00329       0.10952       0.00000       0.00000       0.00000       0.00000       0.00000       0.00000       0.00000       0.00000  
      10        10         1      2005    recall           pt00002      10.95164       0.00015       0.13580       0.01533       0.04600       0.02847       0.00000       0.04490       0.00329       0.10952       0.00000       0.00000       0.00000       0.00000       0.00000       0.00000       0.00000       0.00000  
      11        11         1      2005    recall           pt00002      10.95164       0.00015       0.13580       0.01533       0.04600       0.02847       0.00000       0.04490       0.00329       0.10952       0.00000       0.00000       0.00000       0.00000       0.00000       0.00000       0.00000       0.00000  
      12        12         1      2005    recall           pt00002      10.95164       0.00015       0.13580       0.01533       0.04600       0.02847       0.00000       0.04490       0.00329       0.10952       0.00000       0.00000       0.00000       0.00000       0.00000       0.00000       0.00000       0.00000  
       1         1         1      2006    recall           pt00002      10.95164       0.00007       0.00438       0.00000       0.02738       0.03614       0.00000       0.15004       0.00219       0.08761       0.00000       0.00000       0.00000       0.00000       0.00000       0.00000       0.00000       0.00000  
       2         2         1      2006    recall           pt00002      10.95164       0.00007       0.00438       0.00000       0.02738       0.03614       0.00000       0.15004       0.00219       0.08761       0.00000       0.00000       0.00000       0.00000       0.00000       0.00000       0.00000       0.00000  
       3         3         1      2006    recall           pt00002      10.95164       0.00007       0.00438       0.00000       0.02738       0.03614       0.00000       0.15004       0.00219       0.08761       0.00000       0.00000       0.00000       0.00000       0.00000       0.00000       0.00000       0.00000  
       4         4         1      2006    recall           pt00002      10.95164       0.00007       0.00438       0.00000       0.02738       0.03614       0.00000       0.15004       0.00219       0.08761       0.00000       0.00000       0.00000       0.00000       0.00000       0.00000       0.00000       0.00000  
       5         5         1      2006    recall           pt00002      10.95164       0.00007       0.00438       0.00000       0.02738       0.03614       0.00000       0.15004       0.00219       0.08761       0.00000       0.00000       0.00000       0.00000       0.00000       0.00000       0.00000       0.00000  
       6         6         1      2006    recall           pt00002      10.95164       0.00007       0.00438       0.00000       0.02738       0.03614       0.00000       0.15004       0.00219       0.08761       0.00000       0.00000       0.00000       0.00000       0.00000       0.00000       0.00000       0.00000  
       7         7         1      2006    recall           pt00002      10.95164       0.00007       0.00438       0.00000       0.02738       0.03614       0.00000       0.15004       0.00219       0.08761       0.00000       0.00000       0.00000       0.00000       0.00000       0.00000       0.00000       0.00000  
       8         8         1      2006    recall           pt00002      10.95164       0.00007       0.00438       0.00000       0.02738       0.03614       0.00000       0.15004       0.00219       0.08761       0.00000       0.00000       0.00000       0.00000       0.00000       0.00000       0.00000       0.00000  
       9         9         1      2006    recall           pt00002      10.95164       0.00007       0.00438       0.00000       0.02738       0.03614       0.00000       0.15004       0.00219       0.08761       0.00000       0.00000       0.00000       0.00000       0.00000       0.00000       0.00000       0.00000  
      10        10         1      2006    recall           pt00002      10.95164       0.00007       0.00438       0.00000       0.02738       0.03614       0.00000       0.15004       0.00219       0.08761       0.00000       0.00000       0.00000       0.00000       0.00000       0.00000       0.00000       0.00000  
      11        11         1      2006    recall           pt00002      10.95164       0.00007       0.00438       0.00000       0.02738       0.03614       0.00000       0.15004       0.00219       0.08761       0.00000       0.00000       0.00000       0.00000       0.00000       0.00000       0.00000       0.00000  
      12        12         1      2006    recall           pt00002      10.95164       0.00007       0.00438       0.00000       0.02738       0.03614       0.00000       0.15004       0.00219       0.08761       0.00000       0.00000       0.00000       0.00000       0.00000       0.00000       0.00000       0.00000  
       1         1         1      2007    recall           pt00002      10.95164       0.00006       0.00000       0.00000       0.13251       0.02300       0.00000       0.04490       0.00120       0.04162       0.00000       0.00000       0.00000       0.00000       0.00000       0.00000       0.00000       0.00000  
       2         2         1      2007    recall           pt00002      10.95164       0.00006       0.00000       0.00000       0.13251       0.02300       0.00000       0.04490       0.00120       0.04162       0.00000       0.00000       0.00000       0.00000       0.00000       0.00000       0.00000       0.00000  
       3         3         1      2007    recall           pt00002      10.95164       0.00006       0.00000       0.00000       0.13251       0.02300       0.00000       0.04490       0.00120       0.04162       0.00000       0.00000       0.00000       0.00000       0.00000       0.00000       0.00000       0.00000  
       4         4         1      2007    recall           pt00002      10.95164       0.00006       0.00000       0.00000       0.13251       0.02300       0.00000       0.04490       0.00120       0.04162       0.00000       0.00000       0.00000       0.00000       0.00000       0.00000       0.00000       0.00000  
       5         5         1      2007    recall           pt00002      10.95164       0.00006       0.00000       0.00000       0.13251       0.02300       0.00000       0.04490       0.00120       0.04162       0.00000       0.00000       0.00000       0.00000       0.00000       0.00000       0.00000       0.00000  
       6         6         1      2007    recall           pt00002      10.95164       0.00006       0.00000       0.00000       0.13251       0.02300       0.00000       0.04490       0.00120       0.04162       0.00000       0.00000       0.00000       0.00000       0.00000       0.00000       0.00000       0.00000  
       7         7         1      2007    recall           pt00002      10.95164       0.00006       0.00000       0.00000       0.13251       0.02300       0.00000       0.04490       0.00120       0.04162       0.00000       0.00000       0.00000       0.00000       0.00000       0.00000       0.00000       0.00000  
       8         8         1      2007    recall           pt00002      10.95164       0.00006       0.00000       0.00000       0.13251       0.02300       0.00000       0.04490       0.00120       0.04162       0.00000       0.00000       0.00000       0.00000       0.00000       0.00000       0.00000       0.00000  
       9         9         1      2007    recall           pt00002      10.95164       0.00006       0.00000       0.00000       0.13251       0.02300       0.00000       0.04490       0.00120       0.04162       0.00000       0.00000       0.00000       0.00000       0.00000       0.00000       0.00000       0.00000  
      10        10         1      2007    recall           pt00002      10.95164       0.00006       0.00000       0.00000       0.13251       0.02300       0.00000       0.04490       0.00120       0.04162       0.00000       0.00000       0.00000       0.00000       0.00000       0.00000       0.00000       0.00000  
      11        11         1      2007    recall           pt00002      10.95164       0.00006       0.00000       0.00000       0.13251       0.02300       0.00000       0.04490       0.00120       0.04162       0.00000       0.00000       0.00000       0.00000       0.00000       0.00000       0.00000       0.00000  
      12        12         1      2007    recall           pt00002      10.95164       0.00006       0.00000       0.00000       0.13251       0.02300       0.00000       0.04490       0.00120       0.04162       0.00000       0.00000       0.00000       0.00000       0.00000       0.00000       0.00000       0.00000  
       1         1         1      2008    recall           pt00002      41.06864       0.00181       0.15765       0.07507       0.39419       0.09260       0.00000       0.39961       0.00329       0.41151       0.00000       0.00000       0.00000       0.00000       0.00000       0.00000       0.00000       0.00000  
       2         2         1      2008    recall           pt00002      41.06864       0.00181       0.15765       0.07507       0.39419       0.09260       0.00000       0.39961       0.00329       0.41151       0.00000       0.00000       0.00000       0.00000       0.00000       0.00000       0.00000       0.00000  
       3         3         1      2008    recall           pt00002      41.06864       0.00181       0.15765       0.07507       0.39419       0.09260       0.00000       0.39961       0.00329       0.41151       0.00000       0.00000       0.00000       0.00000       0.00000       0.00000       0.00000       0.00000  
       4         4         1      2008    recall           pt00002      41.06864       0.00181       0.15765       0.07507       0.39419       0.09260       0.00000       0.39961       0.00329       0.41151       0.00000       0.00000       0.00000       0.00000       0.00000       0.00000       0.00000       0.00000  
       5         5         1      2008    recall           pt00002      41.06864       0.00181       0.15765       0.07507       0.39419       0.09260       0.00000       0.39961       0.00329       0.41151       0.00000       0.00000       0.00000       0.00000       0.00000       0.00000       0.00000       0.00000  
       6         6         1      2008    recall           pt00002      41.06864       0.00181       0.15765       0.07507       0.39419       0.09260       0.00000       0.39961       0.00329       0.41151       0.00000       0.00000       0.00000       0.00000       0.00000       0.00000       0.00000       0.00000  
       7         7         1      2008    recall           pt00002      41.06864       0.00181       0.15765       0.07507       0.39419       0.09260       0.00000       0.39961       0.00329       0.41151       0.00000       0.00000       0.00000       0.00000       0.00000       0.00000       0.00000       0.00000  
       8         8         1      2008    recall           pt00002      41.06864       0.00181       0.15765       0.07507       0.39419       0.09260       0.00000       0.39961       0.00329       0.41151       0.00000       0.00000       0.00000       0.00000       0.00000       0.00000       0.00000       0.00000  
       9         9         1      2008    recall           pt00002      41.06864       0.00181       0.15765       0.07507       0.39419       0.09260       0.00000       0.39961       0.00329       0.41151       0.00000       0.00000       0.00000       0.00000       0.00000       0.00000       0.00000       0.00000  
      10        10         1      2008    recall           pt00002      41.06864       0.00181       0.15765       0.07507       0.39419       0.09260       0.00000       0.39961       0.00329       0.41151       0.00000       0.00000       0.00000       0.00000       0.00000       0.00000       0.00000       0.00000  
      11        11         1      2008    recall           pt00002      41.06864       0.00181       0.15765       0.07507       0.39419       0.09260       0.00000       0.39961       0.00329       0.41151       0.00000       0.00000       0.00000       0.00000       0.00000       0.00000       0.00000       0.00000  
      12        12         1      2008    recall           pt00002      41.06864       0.00181       0.15765       0.07507       0.39419       0.09260       0.00000       0.39961       0.00329       0.41151       0.00000       0.00000       0.00000       0.00000       0.00000       0.00000       0.00000       0.00000  
       1         1         1      2009    recall           pt00002      41.06864       0.00073       0.70977       0.33798       1.06465       0.33798       0.00000       1.77442       0.00000       1.68992       0.00000       0.00000       0.00000       0.00000       0.00000       0.00000       0.00000       0.00000  
       2         2         1      2009    recall           pt00002      41.06864       0.00073       0.70977       0.33798       1.06465       0.33798       0.00000       1.77442       0.00000       1.68992       0.00000       0.00000       0.00000       0.00000       0.00000       0.00000       0.00000       0.00000  
       3         3         1      2009    recall           pt00002      41.06864       0.00073       0.70977       0.33798       1.06465       0.33798       0.00000       1.77442       0.00000       1.68992       0.00000       0.00000       0.00000       0.00000       0.00000       0.00000       0.00000       0.00000  
       4         4         1      2009    recall           pt00002      41.06864       0.00073       0.70977       0.33798       1.06465       0.33798       0.00000       1.77442       0.00000       1.68992       0.00000       0.00000       0.00000       0.00000       0.00000       0.00000       0.00000       0.00000  
       5         5         1      2009    recall           pt00002      41.06864       0.00073       0.70977       0.33798       1.06465       0.33798       0.00000       1.77442       0.00000       1.68992       0.00000       0.00000       0.00000       0.00000       0.00000       0.00000       0.00000       0.00000  
       6         6         1      2009    recall           pt00002      41.06864       0.00073       0.70977       0.33798       1.06465       0.33798       0.00000       1.77442       0.00000       1.68992       0.00000       0.00000       0.00000       0.00000       0.00000       0.00000       0.00000       0.00000  
       7         7         1      2009    recall           pt00002      41.06864       0.00073       0.70977       0.33798       1.06465       0.33798       0.00000       1.77442       0.00000       1.68992       0.00000       0.00000       0.00000       0.00000       0.00000       0.00000       0.00000       0.00000  
       8         8         1      2009    recall           pt00002      41.06864       0.00073       0.70977       0.33798       1.06465       0.33798       0.00000       1.77442       0.00000       1.68992       0.00000       0.00000       0.00000       0.00000       0.00000       0.00000       0.00000       0.00000  
       9         9         1      2009    recall           pt00002      41.06864       0.00073       0.70977       0.33798       1.06465       0.33798       0.00000       1.77442       0.00000       1.68992       0.00000       0.00000       0.00000       0.00000       0.00000       0.00000       0.00000       0.00000  
      10        10         1      2009    recall           pt00002      41.06864       0.00073       0.70977       0.33798       1.06465       0.33798       0.00000       1.77442       0.00000       1.68992       0.00000       0.00000       0.00000       0.00000       0.00000       0.00000       0.00000       0.00000  
      11        11         1      2009    recall           pt00002      41.06864       0.00073       0.70977       0.33798       1.06465       0.33798       0.00000       1.77442       0.00000       1.68992       0.00000       0.00000       0.00000       0.00000       0.00000       0.00000       0.00000       0.00000  
      12        12         1      2009    recall           pt00002      41.06864       0.00073       0.70977       0.33798       1.06465       0.33798       0.00000       1.77442       0.00000       1.68992       0.00000       0.00000       0.00000       0.00000       0.00000       0.00000       0.00000       0.00000  
       1         1         1      2010    recall           pt00002      54.75819       0.00102       0.60791       0.30492       0.94718       0.29112       0.00000       1.58219       0.00246       1.49011       0.00000       0.00000       0.00000       0.00000       0.00000       0.00000       0.00000       0.00000  
       2         2         1      2010    recall           pt00002      54.75819       0.00102       0.60791       0.30492       0.94718       0.29112       0.00000       1.58219       0.00246       1.49011       0.00000       0.00000       0.00000       0.00000       0.00000       0.00000       0.00000       0.00000  
       3         3         1      2010    recall           pt00002      54.75819       0.00102       0.60791       0.30492       0.94718       0.29112       0.00000       1.58219       0.00246       1.49011       0.00000       0.00000       0.00000       0.00000       0.00000       0.00000       0.00000       0.00000  
       4         4         1      2010    recall           pt00002      54.75819       0.00102       0.60791       0.30492       0.94718       0.29112       0.00000       1.58219       0.00246       1.49011       0.00000       0.00000       0.00000       0.00000       0.00000       0.00000       0.00000       0.00000  
       5         5         1      2010    recall           pt00002      54.75819       0.00102       0.60791       0.30492       0.94718       0.29112       0.00000       1.58219       0.00246       1.49011       0.00000       0.00000       0.00000       0.00000       0.00000       0.00000       0.00000       0.00000  
       6         6         1      2010    recall           pt00002      54.75819       0.00102       0.60791       0.30492       0.94718       0.29112       0.00000       1.58219       0.00246       1.49011       0.00000       0.00000       0.00000       0.00000       0.00000       0.00000       0.00000       0.00000  
       7         7         1      2010    recall           pt00002      54.75819       0.00102       0.60791       0.30492       0.94718       0.29112       0.00000       1.58219       0.00246       1.49011       0.00000       0.00000       0.00000       0.00000       0.00000       0.00000       0.00000       0.00000  
       8         8         1      2010    recall           pt00002      54.75819       0.00102       0.60791       0.30492       0.94718       0.29112       0.00000       1.58219       0.00246       1.49011       0.00000       0.00000       0.00000       0.00000       0.00000       0.00000       0.00000       0.00000  
       9         9         1      2010    recall           pt00002      54.75819       0.00102       0.60791       0.30492       0.94718       0.29112       0.00000       1.58219       0.00246       1.49011       0.00000       0.00000       0.00000       0.00000       0.00000       0.00000       0.00000       0.00000  
      10        10         1      2010    recall           pt00002      54.75819       0.00102       0.60791       0.30492       0.94718       0.29112       0.00000       1.58219       0.00246       1.49011       0.00000       0.00000       0.00000       0.00000       0.00000       0.00000       0.00000       0.00000  
      11        11         1      2010    recall           pt00002      54.75819       0.00102       0.60791       0.30492       0.94718       0.29112       0.00000       1.58219       0.00246       1.49011       0.00000       0.00000       0.00000       0.00000       0.00000       0.00000       0.00000       0.00000  
      12        12         1      2010    recall           pt00002      54.75819       0.00102       0.60791       0.30492       0.94718       0.29112       0.00000       1.58219       0.00246       1.49011       0.00000       0.00000       0.00000       0.00000       0.00000       0.00000       0.00000       0.00000  
       1         1         1      2011    recall           pt00002      57.49609       0.00102       0.21778       0.07369       0.29697       0.11312       0.00000       0.44795       0.00110       0.46156       0.00000       0.00000       0.00000       0.00000       0.00000       0.00000       0.00000       0.00000  
       2         2         1      2011    recall           pt00002      57.49609       0.00102       0.21778       0.07369       0.29697       0.11312       0.00000       0.44795       0.00110       0.46156       0.00000       0.00000       0.00000       0.00000       0.00000       0.00000       0.00000       0.00000  
       3         3         1      2011    recall           pt00002      57.49609       0.00102       0.21778       0.07369       0.29697       0.11312       0.00000       0.44795       0.00110       0.46156       0.00000       0.00000       0.00000       0.00000       0.00000       0.00000       0.00000       0.00000  
       4         4         1      2011    recall           pt00002      57.49609       0.00102       0.21778       0.07369       0.29697       0.11312       0.00000       0.44795       0.00110       0.46156       0.00000       0.00000       0.00000       0.00000       0.00000       0.00000       0.00000       0.00000  
       5         5         1      2011    recall           pt00002      57.49609       0.00102       0.21778       0.07369       0.29697       0.11312       0.00000       0.44795       0.00110       0.46156       0.00000       0.00000       0.00000       0.00000       0.00000       0.00000       0.00000       0.00000  
       6         6         1      2011    recall           pt00002      57.49609       0.00102       0.21778       0.07369       0.29697       0.11312       0.00000       0.44795       0.00110       0.46156       0.00000       0.00000       0.00000       0.00000       0.00000       0.00000       0.00000       0.00000  
       7         7         1      2011    recall           pt00002      57.49609       0.00102       0.21778       0.07369       0.29697       0.11312       0.00000       0.44795       0.00110       0.46156       0.00000       0.00000       0.00000       0.00000       0.00000       0.00000       0.00000       0.00000  
       8         8         1      2011    recall           pt00002      57.49609       0.00102       0.21778       0.07369       0.29697       0.11312       0.00000       0.44795       0.00110       0.46156       0.00000       0.00000       0.00000       0.00000       0.00000       0.00000       0.00000       0.00000  
       9         9         1      2011    recall           pt00002      57.49609       0.00102       0.21778       0.07369       0.29697       0.11312       0.00000       0.44795       0.00110       0.46156       0.00000       0.00000       0.00000       0.00000       0.00000       0.00000       0.00000       0.00000  
      10        10         1      2011    recall           pt00002      57.49609       0.00102       0.21778       0.07369       0.29697       0.11312       0.00000       0.44795       0.00110       0.46156       0.00000       0.00000       0.00000       0.00000       0.00000       0.00000       0.00000       0.00000  
      11        11         1      2011    recall           pt00002      57.49609       0.00102       0.21778       0.07369       0.29697       0.11312       0.00000       0.44795       0.00110       0.46156       0.00000       0.00000       0.00000       0.00000       0.00000       0.00000       0.00000       0.00000  
      12        12         1      2011    recall           pt00002      57.49609       0.00102       0.21778       0.07369       0.29697       0.11312       0.00000       0.44795       0.00110       0.46156       0.00000       0.00000       0.00000       0.00000       0.00000       0.00000       0.00000       0.00000  
       1         1         1      2012    recall           pt00002      43.80655       0.00070       0.18017       0.08580       0.32830       0.10879       0.00000       0.48876       0.00219       0.47059       0.00000       0.00000       0.00000       0.00000       0.00000       0.00000       0.00000       0.00000  
       2         2         1      2012    recall           pt00002      43.80655       0.00070       0.18017       0.08580       0.32830       0.10879       0.00000       0.48876       0.00219       0.47059       0.00000       0.00000       0.00000       0.00000       0.00000       0.00000       0.00000       0.00000  
       3         3         1      2012    recall           pt00002      43.80655       0.00070       0.18017       0.08580       0.32830       0.10879       0.00000       0.48876       0.00219       0.47059       0.00000       0.00000       0.00000       0.00000       0.00000       0.00000       0.00000       0.00000  
       4         4         1      2012    recall           pt00002      43.80655       0.00070       0.18017       0.08580       0.32830       0.10879       0.00000       0.48876       0.00219       0.47059       0.00000       0.00000       0.00000       0.00000       0.00000       0.00000       0.00000       0.00000  
       5         5         1      2012    recall           pt00002      43.80655       0.00070       0.18017       0.08580       0.32830       0.10879       0.00000       0.48876       0.00219       0.47059       0.00000       0.00000       0.00000       0.00000       0.00000       0.00000       0.00000       0.00000  
       6         6         1      2012    recall           pt00002      43.80655       0.00070       0.18017       0.08580       0.32830       0.10879       0.00000       0.48876       0.00219       0.47059       0.00000       0.00000       0.00000       0.00000       0.00000       0.00000       0.00000       0.00000  
       7         7         1      2012    recall           pt00002      43.80655       0.00070       0.18017       0.08580       0.32830       0.10879       0.00000       0.48876       0.00219       0.47059       0.00000       0.00000       0.00000       0.00000       0.00000       0.00000       0.00000       0.00000  
       8         8         1      2012    recall           pt00002      43.80655       0.00070       0.18017       0.08580       0.32830       0.10879       0.00000       0.48876       0.00219       0.47059       0.00000       0.00000       0.00000       0.00000       0.00000       0.00000       0.00000       0.00000  
       9         9         1      2012    recall           pt00002      43.80655       0.00070       0.18017       0.08580       0.32830       0.10879       0.00000       0.48876       0.00219       0.47059       0.00000       0.00000       0.00000       0.00000       0.00000       0.00000       0.00000       0.00000  
      10        10         1      2012    recall           pt00002      43.80655       0.00070       0.18017       0.08580       0.32830       0.10879       0.00000       0.48876       0.00219       0.47059       0.00000       0.00000       0.00000       0.00000       0.00000       0.00000       0.00000       0.00000  
      11        11         1      2012    recall           pt00002      43.80655       0.00070       0.18017       0.08580       0.32830       0.10879       0.00000       0.48876       0.00219       0.47059       0.00000       0.00000       0.00000       0.00000       0.00000       0.00000       0.00000       0.00000  
      12        12         1      2012    recall           pt00002      43.80655       0.00070       0.18017       0.08580       0.32830       0.10879       0.00000       0.48876       0.00219       0.47059       0.00000       0.00000       0.00000       0.00000       0.00000       0.00000       0.00000       0.00000  
       1         1         1      2013    recall           pt00002      44.08034       0.00030       0.07249       0.01510       0.18162       0.05784       0.00000       0.20647       0.00253       0.34616       0.00000       0.00000       0.00000       0.00000       0.00000       0.00000       0.00000       0.00000  
       2         2         1      2013    recall           pt00002      44.08034       0.00030       0.07249       0.01510       0.18162       0.05784       0.00000       0.20647       0.00253       0.34616       0.00000       0.00000       0.00000       0.00000       0.00000       0.00000       0.00000       0.00000  
       3         3         1      2013    recall           pt00002      44.08034       0.00030       0.07249       0.01510       0.18162       0.05784       0.00000       0.20647       0.00253       0.34616       0.00000       0.00000       0.00000       0.00000       0.00000       0.00000       0.00000       0.00000  
       4         4         1      2013    recall           pt00002      44.08034       0.00030       0.07249       0.01510       0.18162       0.05784       0.00000       0.20647       0.00253       0.34616       0.00000       0.00000       0.00000       0.00000       0.00000       0.00000       0.00000       0.00000  
       5         5         1      2013    recall           pt00002      44.08034       0.00030       0.07249       0.01510       0.18162       0.05784       0.00000       0.20647       0.00253       0.34616       0.00000       0.00000       0.00000       0.00000       0.00000       0.00000       0.00000       0.00000  
       6         6         1      2013    recall           pt00002      44.08034       0.00030       0.07249       0.01510       0.18162       0.05784       0.00000       0.20647       0.00253       0.34616       0.00000       0.00000       0.00000       0.00000       0.00000       0.00000       0.00000       0.00000  
       7         7         1      2013    recall           pt00002      44.08034       0.00030       0.07249       0.01510       0.18162       0.05784       0.00000       0.20647       0.00253       0.34616       0.00000       0.00000       0.00000       0.00000       0.00000       0.00000       0.00000       0.00000  
       8         8         1      2013    recall           pt00002      44.08034       0.00030       0.07249       0.01510       0.18162       0.05784       0.00000       0.20647       0.00253       0.34616       0.00000       0.00000       0.00000       0.00000       0.00000       0.00000       0.00000       0.00000  
       9         9         1      2013    recall           pt00002      44.08034       0.00030       0.07249       0.01510       0.18162       0.05784       0.00000       0.20647       0.00253       0.34616       0.00000       0.00000       0.00000       0.00000       0.00000       0.00000       0.00000       0.00000  
      10        10         1      2013    recall           pt00002      44.08034       0.00030       0.07249       0.01510       0.18162       0.05784       0.00000       0.20647       0.00253       0.34616       0.00000       0.00000       0.00000       0.00000       0.00000       0.00000       0.00000       0.00000  
      11        11         1      2013    recall           pt00002      44.08034       0.00030       0.07249       0.01510       0.18162       0.05784       0.00000       0.20647       0.00253       0.34616       0.00000       0.00000       0.00000       0.00000       0.00000       0.00000       0.00000       0.00000  
      12        12         1      2013    recall           pt00002      44.08034       0.00030       0.07249       0.01510       0.18162       0.05784       0.00000       0.20647       0.00253       0.34616       0.00000       0.00000       0.00000       0.00000       0.00000       0.00000       0.00000       0.00000  
       1         1         1      2014    recall           pt00002      37.23557       0.00033       0.05423       0.01130       0.17711       0.04421       0.00000       0.13048       0.00342       0.30201       0.00000       0.00000       0.00000       0.00000       0.00000       0.00000       0.00000       0.00000  
       2         2         1      2014    recall           pt00002      37.23557       0.00033       0.05423       0.01130       0.17711       0.04421       0.00000       0.13048       0.00342       0.30201       0.00000       0.00000       0.00000       0.00000       0.00000       0.00000       0.00000       0.00000  
       3         3         1      2014    recall           pt00002      37.23557       0.00033       0.05423       0.01130       0.17711       0.04421       0.00000       0.13048       0.00342       0.30201       0.00000       0.00000       0.00000       0.00000       0.00000       0.00000       0.00000       0.00000  
       4         4         1      2014    recall           pt00002      37.23557       0.00033       0.05423       0.01130       0.17711       0.04421       0.00000       0.13048       0.00342       0.30201       0.00000       0.00000       0.00000       0.00000       0.00000       0.00000       0.00000       0.00000  
       5         5         1      2014    recall           pt00002      37.23557       0.00033       0.05423       0.01130       0.17711       0.04421       0.00000       0.13048       0.00342       0.30201       0.00000       0.00000       0.00000       0.00000       0.00000       0.00000       0.00000       0.00000  
       6         6         1      2014    recall           pt00002      37.23557       0.00033       0.05423       0.01130       0.17711       0.04421       0.00000       0.13048       0.00342       0.30201       0.00000       0.00000       0.00000       0.00000       0.00000       0.00000       0.00000       0.00000  
       7         7         1      2014    recall           pt00002      37.23557       0.00033       0.05423       0.01130       0.17711       0.04421       0.00000       0.13048       0.00342       0.30201       0.00000       0.00000       0.00000       0.00000       0.00000       0.00000       0.00000       0.00000  
       8         8         1      2014    recall           pt00002      37.23557       0.00033       0.05423       0.01130       0.17711       0.04421       0.00000       0.13048       0.00342       0.30201       0.00000       0.00000       0.00000       0.00000       0.00000       0.00000       0.00000       0.00000  
[...]
      11        11         1      2014    recall           pt00002      37.23557       0.00033       0.05423       0.01130       0.17711       0.04421       0.00000       0.13048       0.00342       0.30201       0.00000       0.00000       0.00000       0.00000       0.00000       0.00000       0.00000       0.00000  
      12        12         1      2014    recall           pt00002      37.23557       0.00033       0.05423       0.01130       0.17711       0.04421       0.00000       0.13048       0.00342       0.30201       0.00000       0.00000       0.00000       0.00000       0.00000       0.00000       0.00000       0.00000  
       1         1         1      2015    recall           pt00002      42.16380       0.00064       0.08010       0.01669       0.15826       0.03939       0.00000       0.19438       0.00472       0.40540       0.00000       0.00000       0.00000       0.00000       0.00000       0.00000       0.00000       0.00000  
       2         2         1      2015    recall           pt00002      42.16380       0.00064       0.08010       0.01669       0.15826       0.03939       0.00000       0.19438       0.00472       0.40540       0.00000       0.00000       0.00000       0.00000       0.00000       0.00000       0.00000       0.00000  
       3         3         1      2015    recall           pt00002      42.16380       0.00064       0.08010       0.01669       0.15826       0.03939       0.00000       0.19438       0.00472       0.40540       0.00000       0.00000       0.00000       0.00000       0.00000       0.00000       0.00000       0.00000  
       4         4         1      2015    recall           pt00002      42.16380       0.00064       0.08010       0.01669       0.15826       0.03939       0.00000       0.19438       0.00472       0.40540       0.00000       0.00000       0.00000       0.00000       0.00000       0.00000       0.00000       0.00000  
       5         5         1      2015    recall           pt00002      42.16380       0.00064       0.08010       0.01669       0.15826       0.03939       0.00000       0.19438       0.00472       0.40540       0.00000       0.00000       0.00000       0.00000       0.00000       0.00000       0.00000       0.00000  
       6         6         1      2015    recall           pt00002      42.16380       0.00064       0.08010       0.01669       0.15826       0.03939       0.00000       0.19438       0.00472       0.40540       0.00000       0.00000       0.00000       0.00000       0.00000       0.00000       0.00000       0.00000  
       7         7         1      2015    recall           pt00002      42.16380       0.00064       0.08010       0.01669       0.15826       0.03939       0.00000       0.19438       0.00472       0.40540       0.00000       0.00000       0.00000       0.00000       0.00000       0.00000       0.00000       0.00000  
       8         8         1      2015    recall           pt00002      42.16380       0.00064       0.08010       0.01669       0.15826       0.03939       0.00000       0.19438       0.00472       0.40540       0.00000       0.00000       0.00000       0.00000       0.00000       0.00000       0.00000       0.00000  
       9         9         1      2015    recall           pt00002      42.16380       0.00064       0.08010       0.01669       0.15826       0.03939       0.00000       0.19438       0.00472       0.40540       0.00000       0.00000       0.00000       0.00000       0.00000       0.00000       0.00000       0.00000  
      10        10         1      2015    recall           pt00002      42.16380       0.00064       0.08010       0.01669       0.15826       0.03939       0.00000       0.19438       0.00472       0.40540       0.00000       0.00000       0.00000       0.00000       0.00000       0.00000       0.00000       0.00000  
      11        11         1      2015    recall           pt00002      42.16380       0.00064       0.08010       0.01669       0.15826       0.03939       0.00000       0.19438       0.00472       0.40540       0.00000       0.00000       0.00000       0.00000       0.00000       0.00000       0.00000       0.00000  
      12        12         1      2015    recall           pt00002      42.16380       0.00064       0.08010       0.01669       0.15826       0.03939       0.00000       0.19438       0.00472       0.40540       0.00000       0.00000       0.00000       0.00000       0.00000       0.00000       0.00000       0.00000  
       1         1         1      2016    recall           pt00002      34.77145       0.00073       0.13226       0.02756       0.26738       0.06225       0.00000       0.21061       0.00283       0.60393       0.00000       0.00000       0.00000       0.00000       0.00000       0.00000       0.00000       0.00000  
       2         2         1      2016    recall           pt00002      34.77145       0.00073       0.13226       0.02756       0.26738       0.06225       0.00000       0.21061       0.00283       0.60393       0.00000       0.00000       0.00000       0.00000       0.00000       0.00000       0.00000       0.00000  
       3         3         1      2016    recall           pt00002      34.77145       0.00073       0.13226       0.02756       0.26738       0.06225       0.00000       0.21061       0.00283       0.60393       0.00000       0.00000       0.00000       0.00000       0.00000       0.00000       0.00000       0.00000  
       4         4         1      2016    recall           pt00002      34.77145       0.00073       0.13226       0.02756       0.26738       0.06225       0.00000       0.21061       0.00283       0.60393       0.00000       0.00000       0.00000       0.00000       0.00000       0.00000       0.00000       0.00000  
       5         5         1      2016    recall           pt00002      34.77145       0.00073       0.13226       0.02756       0.26738       0.06225       0.00000       0.21061       0.00283       0.60393       0.00000       0.00000       0.00000       0.00000       0.00000       0.00000       0.00000       0.00000  
       6         6         1      2016    recall           pt00002      34.77145       0.00073       0.13226       0.02756       0.26738       0.06225       0.00000       0.21061       0.00283       0.60393       0.00000       0.00000       0.00000       0.00000       0.00000       0.00000       0.00000       0.00000  
       7         7         1      2016    recall           pt00002      34.77145       0.00073       0.13226       0.02756       0.26738       0.06225       0.00000       0.21061       0.00283       0.60393       0.00000       0.00000       0.00000       0.00000       0.00000       0.00000       0.00000       0.00000  
       8         8         1      2016    recall           pt00002      34.77145       0.00073       0.13226       0.02756       0.26738       0.06225       0.00000       0.21061       0.00283       0.60393       0.00000       0.00000       0.00000       0.00000       0.00000       0.00000       0.00000       0.00000  
       9         9         1      2016    recall           pt00002      34.77145       0.00073       0.13226       0.02756       0.26738       0.06225       0.00000       0.21061       0.00283       0.60393       0.00000       0.00000       0.00000       0.00000       0.00000       0.00000       0.00000       0.00000  
      10        10         1      2016    recall           pt00002      34.77145       0.00073       0.13226       0.02756       0.26738       0.06225       0.00000       0.21061       0.00283       0.60393       0.00000       0.00000       0.00000       0.00000       0.00000       0.00000       0.00000       0.00000  
      11        11         1      2016    recall           pt00002      34.77145       0.00073       0.13226       0.02756       0.26738       0.06225       0.00000       0.21061       0.00283       0.60393       0.00000       0.00000       0.00000       0.00000       0.00000       0.00000       0.00000       0.00000  
      12        12         1      2016    recall           pt00002      34.77145       0.00073       0.13226       0.02756       0.26738       0.06225       0.00000       0.21061       0.00283       0.60393       0.00000       0.00000       0.00000       0.00000       0.00000       0.00000       0.00000       0.00000  
       1         1         1      2017    recall           pt00002      13.96334       0.00017       0.00567       0.00118       0.08559       0.05881       0.00000       0.11834       0.00074       0.12911       0.00000       0.00000       0.00000       0.00000       0.00000       0.00000       0.00000       0.00000  
       2         2         1      2017    recall           pt00002      13.96334       0.00017       0.00567       0.00118       0.08559       0.05881       0.00000       0.11834       0.00074       0.12911       0.00000       0.00000       0.00000       0.00000       0.00000       0.00000       0.00000       0.00000  
       3         3         1      2017    recall           pt00002      13.96334       0.00017       0.00567       0.00118       0.08559       0.05881       0.00000       0.11834       0.00074       0.12911       0.00000       0.00000       0.00000       0.00000       0.00000       0.00000       0.00000       0.00000  
       4         4         1      2017    recall           pt00002      13.96334       0.00017       0.00567       0.00118       0.08559       0.05881       0.00000       0.11834       0.00074       0.12911       0.00000       0.00000       0.00000       0.00000       0.00000       0.00000       0.00000       0.00000  
       5         5         1      2017    recall           pt00002      13.96334       0.00017       0.00567       0.00118       0.08559       0.05881       0.00000       0.11834       0.00074       0.12911       0.00000       0.00000       0.00000       0.00000       0.00000       0.00000       0.00000       0.00000  
       6         6         1      2017    recall           pt00002      13.96334       0.00017       0.00567       0.00118       0.08559       0.05881       0.00000       0.11834       0.00074       0.12911       0.00000       0.00000       0.00000       0.00000       0.00000       0.00000       0.00000       0.00000  
       7         7         1      2017    recall           pt00002      13.96334       0.00017       0.00567       0.00118       0.08559       0.05881       0.00000       0.11834       0.00074       0.12911       0.00000       0.00000       0.00000       0.00000       0.00000       0.00000       0.00000       0.00000  
       8         8         1      2017    recall           pt00002      13.96334       0.00017       0.00567       0.00118       0.08559       0.05881       0.00000       0.11834       0.00074       0.12911       0.00000       0.00000       0.00000       0.00000       0.00000       0.00000       0.00000       0.00000  
       9         9         1      2017    recall           pt00002      13.96334       0.00017       0.00567       0.00118       0.08559       0.05881       0.00000       0.11834       0.00074       0.12911       0.00000       0.00000       0.00000       0.00000       0.00000       0.00000       0.00000       0.00000  
      10        10         1      2017    recall           pt00002      13.96334       0.00017       0.00567       0.00118       0.08559       0.05881       0.00000       0.11834       0.00074       0.12911       0.00000       0.00000       0.00000       0.00000       0.00000       0.00000       0.00000       0.00000  
      11        11         1      2017    recall           pt00002      13.96334       0.00017       0.00567       0.00118       0.08559       0.05881       0.00000       0.11834       0.00074       0.12911       0.00000       0.00000       0.00000       0.00000       0.00000       0.00000       0.00000       0.00000  
      12        12         1      2017    recall           pt00002      13.96334       0.00017       0.00567       0.00118       0.08559       0.05881       0.00000       0.11834       0.00074       0.12911       0.00000       0.00000       0.00000       0.00000       0.00000       0.00000       0.00000       0.00000  
       1         1         1      2018    recall           pt00002      15.60608       0.00012       0.00000       0.00000       0.05638       0.03159       0.00000       0.15306       0.00218       0.11439       0.00000       0.00000       0.00000       0.00000       0.00000       0.00000       0.00000       0.00000  
       2         2         1      2018    recall           pt00002      15.60608       0.00012       0.00000       0.00000       0.05638       0.03159       0.00000       0.15306       0.00218       0.11439       0.00000       0.00000       0.00000       0.00000       0.00000       0.00000       0.00000       0.00000  
       3         3         1      2018    recall           pt00002      15.60608       0.00012       0.00000       0.00000       0.05638       0.03159       0.00000       0.15306       0.00218       0.11439       0.00000       0.00000       0.00000       0.00000       0.00000       0.00000       0.00000       0.00000  
       4         4         1      2018    recall           pt00002      15.60608       0.00012       0.00000       0.00000       0.05638       0.03159       0.00000       0.15306       0.00218       0.11439       0.00000       0.00000       0.00000       0.00000       0.00000       0.00000       0.00000       0.00000  
       5         5         1      2018    recall           pt00002      15.60608       0.00012       0.00000       0.00000       0.05638       0.03159       0.00000       0.15306       0.00218       0.11439       0.00000       0.00000       0.00000       0.00000       0.00000       0.00000       0.00000       0.00000  
       6         6         1      2018    recall           pt00002      15.60608       0.00012       0.00000       0.00000       0.05638       0.03159       0.00000       0.15306       0.00218       0.11439       0.00000       0.00000       0.00000       0.00000       0.00000       0.00000       0.00000       0.00000  
       7         7         1      2018    recall           pt00002      15.60608       0.00012       0.00000       0.00000       0.05638       0.03159       0.00000       0.15306       0.00218       0.11439       0.00000       0.00000       0.00000       0.00000       0.00000       0.00000       0.00000       0.00000  
       8         8         1      2018    recall           pt00002      15.60608       0.00012       0.00000       0.00000       0.05638       0.03159       0.00000       0.15306       0.00218       0.11439       0.00000       0.00000       0.00000       0.00000       0.00000       0.00000       0.00000       0.00000  
       9         9         1      2018    recall           pt00002      15.60608       0.00012       0.00000       0.00000       0.05638       0.03159       0.00000       0.15306       0.00218       0.11439       0.00000       0.00000       0.00000       0.00000       0.00000       0.00000       0.00000       0.00000  
      10        10         1      2018    recall           pt00002      15.60608       0.00012       0.00000       0.00000       0.05638       0.03159       0.00000       0.15306       0.00218       0.11439       0.00000       0.00000       0.00000       0.00000       0.00000       0.00000       0.00000       0.00000  
      11        11         1      2018    recall           pt00002      15.60608       0.00012       0.00000       0.00000       0.05638       0.03159       0.00000       0.15306       0.00218       0.11439       0.00000       0.00000       0.00000       0.00000       0.00000       0.00000       0.00000       0.00000  
      12        12         1      2018    recall           pt00002      15.60608       0.00012       0.00000       0.00000       0.05638       0.03159       0.00000       0.15306       0.00218       0.11439       0.00000       0.00000       0.00000       0.00000       0.00000       0.00000       0.00000       0.00000  
       1         1         1      2019    recall           pt00002      15.25837       0.00020       0.00000       0.00000       0.08597       0.05366       0.00000       0.14456       0.00328       0.12704       0.00000       0.00000       0.00000       0.00000       0.00000       0.00000       0.00000       0.00000  
       2         2         1      2019    recall           pt00002      15.25837       0.00020       0.00000       0.00000       0.08597       0.05366       0.00000       0.14456       0.00328       0.12704       0.00000       0.00000       0.00000       0.00000       0.00000       0.00000       0.00000       0.00000  
       3         3         1      2019    recall           pt00002      15.25837       0.00020       0.00000       0.00000       0.08597       0.05366       0.00000       0.14456       0.00328       0.12704       0.00000       0.00000       0.00000       0.00000       0.00000       0.00000       0.00000       0.00000  
       4         4         1      2019    recall           pt00002      15.25837       0.00020       0.00000       0.00000       0.08597       0.05366       0.00000       0.14456       0.00328       0.12704       0.00000       0.00000       0.00000       0.00000       0.00000       0.00000       0.00000       0.00000  
       5         5         1      2019    recall           pt00002      15.25837       0.00020       0.00000       0.00000       0.08597       0.05366       0.00000       0.14456       0.00328       0.12704       0.00000       0.00000       0.00000       0.00000       0.00000       0.00000       0.00000       0.00000  
       6         6         1      2019    recall           pt00002      15.25837       0.00020       0.00000       0.00000       0.08597       0.05366       0.00000       0.14456       0.00328       0.12704       0.00000       0.00000       0.00000       0.00000       0.00000       0.00000       0.00000       0.00000  
       7         7         1      2019    recall           pt00002      15.25837       0.00020       0.00000       0.00000       0.08597       0.05366       0.00000       0.14456       0.00328       0.12704       0.00000       0.00000       0.00000       0.00000       0.00000       0.00000       0.00000       0.00000  
       8         8         1      2019    recall           pt00002      15.25837       0.00020       0.00000       0.00000       0.08597       0.05366       0.00000       0.14456       0.00328       0.12704       0.00000       0.00000       0.00000       0.00000       0.00000       0.00000       0.00000       0.00000  
       9         9         1      2019    recall           pt00002      15.25837       0.00020       0.00000       0.00000       0.08597       0.05366       0.00000       0.14456       0.00328       0.12704       0.00000       0.00000       0.00000       0.00000       0.00000       0.00000       0.00000       0.00000  
      10        10         1      2019    recall           pt00002      15.25837       0.00020       0.00000       0.00000       0.08597       0.05366       0.00000       0.14456       0.00328       0.12704       0.00000       0.00000       0.00000       0.00000       0.00000       0.00000       0.00000       0.00000  
      11        11         1      2019    recall           pt00002      15.25837       0.00020       0.00000       0.00000       0.08597       0.05366       0.00000       0.14456       0.00328       0.12704       0.00000       0.00000       0.00000       0.00000       0.00000       0.00000       0.00000       0.00000  
      12        12         1      2019    recall           pt00002      15.25837       0.00020       0.00000       0.00000       0.08597       0.05366       0.00000       0.14456       0.00328       0.12704       0.00000       0.00000       0.00000       0.00000       0.00000       0.00000       0.00000       0.00000  
