recall.rec: written by SWAT+ editor v2.0.0 on 2022-02-14 13:07
26
    jday        mo    day_mo       iyr    ob_typ           ob_name           flo           sed         ptl_n         ptl_p         no3_n         sol_p          chla         nh3_n         no2_n       cbn_bod           oxy          sand          silt          clay        sm_agg        lg_agg        gravel           tmp  
       1         1         1      1994    recall           pt00020       0.00000       0.00000       0.00000       0.00000       0.00000       0.00000       0.00000       0.00000       0.00000       0.00000       0.00000       0.00000       0.00000       0.00000       0.00000       0.00000       0.00000       0.00000  
       2         2         1      1994    recall           pt00020       0.00000       0.00000       0.00000       0.00000       0.00000       0.00000       0.00000       0.00000       0.00000       0.00000       0.00000       0.00000       0.00000       0.00000       0.00000       0.00000       0.00000       0.00000  
       3         3         1      1994    recall           pt00020       0.00000       0.00000       0.00000       0.00000       0.00000       0.00000       0.00000       0.00000       0.00000       0.00000       0.00000       0.00000       0.00000       0.00000       0.00000       0.00000       0.00000       0.00000  
       4         4         1      1994    recall           pt00020       0.00000       0.00000       0.00000       0.00000       0.00000       0.00000       0.00000       0.00000       0.00000       0.00000       0.00000       0.00000       0.00000       0.00000       0.00000       0.00000       0.00000       0.00000  
       5         5         1      1994    recall           pt00020       0.00000       0.00000       0.00000       0.00000       0.00000       0.00000       0.00000       0.00000       0.00000       0.00000       0.00000       0.00000       0.00000       0.00000       0.00000       0.00000       0.00000       0.00000  
       6         6         1      1994    recall           pt00020       0.00000       0.00000       0.00000       0.00000       0.00000       0.00000       0.00000       0.00000       0.00000       0.00000       0.00000       0.00000       0.00000       0.00000       0.00000       0.00000       0.00000       0.00000  
       7         7         1      1994    recall           pt00020       0.00000       0.00000       0.00000       0.00000       0.00000       0.00000       0.00000       0.00000       0.00000       0.00000       0.00000       0.00000       0.00000       0.00000       0.00000       0.00000       0.00000       0.00000  
       8         8         1      1994    recall           pt00020       0.00000       0.00000       0.00000       0.00000       0.00000       0.00000       0.00000       0.00000       0.00000       0.00000       0.00000       0.00000       0.00000       0.00000       0.00000       0.00000       0.00000       0.00000  
       9         9         1      1994    recall           pt00020       0.00000       0.00000       0.00000       0.00000       0.00000       0.00000       0.00000       0.00000       0.00000       0.00000       0.00000       0.00000       0.00000       0.00000       0.00000       0.00000       0.00000       0.00000  
      10        10         1      1994    recall           pt00020       0.00000       0.00000       0.00000       0.00000       0.00000       0.00000       0.00000       0.00000       0.00000       0.00000       0.00000       0.00000       0.00000       0.00000       0.00000       0.00000       0.00000       0.00000  
      11        11         1      1994    recall           pt00020       0.00000       0.00000       0.00000       0.00000       0.00000       0.00000       0.00000       0.00000       0.00000       0.00000       0.00000       0.00000       0.00000       0.00000       0.00000       0.00000       0.00000       0.00000  
      12        12         1      1994    recall           pt00020       0.00000       0.00000       0.00000       0.00000       0.00000       0.00000       0.00000       0.00000       0.00000       0.00000       0.00000       0.00000       0.00000       0.00000       0.00000       0.00000       0.00000       0.00000  
       1         1         1      1995    recall           pt00020       0.00000       0.00000       0.00000       0.00000       0.00000       0.00000       0.00000       0.00000       0.00000       0.00000       0.00000       0.00000       0.00000       0.00000       0.00000       0.00000       0.00000       0.00000  
       2         2         1      1995    recall           pt00020       0.00000       0.00000       0.00000       0.00000       0.00000       0.00000       0.00000       0.00000       0.00000       0.00000       0.00000       0.00000       0.00000       0.00000       0.00000       0.00000       0.00000       0.00000  
       3         3         1      1995    recall           pt00020       0.00000       0.00000       0.00000       0.00000       0.00000       0.00000       0.00000       0.00000       0.00000       0.00000       0.00000       0.00000       0.00000       0.00000       0.00000       0.00000       0.00000       0.00000  
       4         4         1      1995    recall           pt00020       0.00000       0.00000       0.00000       0.00000       0.00000       0.00000       0.00000       0.00000       0.00000       0.00000       0.00000       0.00000       0.00000       0.00000       0.00000       0.00000       0.00000       0.00000  
       5         5         1      1995    recall           pt00020       0.00000       0.00000       0.00000       0.00000       0.00000       0.00000       0.00000       0.00000       0.00000       0.00000       0.00000       0.00000       0.00000       0.00000       0.00000       0.00000       0.00000       0.00000  
       6         6         1      1995    recall           pt00020       0.00000       0.00000       0.00000       0.00000       0.00000       0.00000       0.00000       0.00000       0.00000       0.00000       0.00000       0.00000       0.00000       0.00000       0.00000       0.00000       0.00000       0.00000  
       7         7         1      1995    recall           pt00020       0.00000       0.00000       0.00000       0.00000       0.00000       0.00000       0.00000       0.00000       0.00000       0.00000       0.00000       0.00000       0.00000       0.00000       0.00000       0.00000       0.00000       0.00000  
       8         8         1      1995    recall           pt00020       0.00000       0.00000       0.00000       0.00000       0.00000       0.00000       0.00000       0.00000       0.00000       0.00000       0.00000       0.00000       0.00000       0.00000       0.00000       0.00000       0.00000       0.00000  
       9         9         1      1995    recall           pt00020       0.00000       0.00000       0.00000       0.00000       0.00000       0.00000       0.00000       0.00000       0.00000       0.00000       0.00000       0.00000       0.00000       0.00000       0.00000       0.00000       0.00000       0.00000  
      10        10         1      1995    recall           pt00020       0.00000       0.00000       0.00000       0.00000       0.00000       0.00000       0.00000       0.00000       0.00000       0.00000       0.00000       0.00000       0.00000       0.00000       0.00000       0.00000       0.00000       0.00000  
      11        11         1      1995    recall           pt00020       0.00000       0.00000       0.00000       0.00000       0.00000       0.00000       0.00000       0.00000       0.00000       0.00000       0.00000       0.00000       0.00000       0.00000       0.00000       0.00000       0.00000       0.00000  
      12        12         1      1995    recall           pt00020       0.00000       0.00000       0.00000       0.00000       0.00000       0.00000       0.00000       0.00000       0.00000       0.00000       0.00000       0.00000       0.00000       0.00000       0.00000       0.00000       0.00000       0.00000  
       1         1         1      1996    recall           pt00020       0.00000       0.00000       0.00000       0.00000       0.00000       0.00000       0.00000       0.00000       0.00000       0.00000       0.00000       0.00000       0.00000       0.00000       0.00000       0.00000       0.00000       0.00000  
       2         2         1      1996    recall           pt00020       0.00000       0.00000       0.00000       0.00000       0.00000       0.00000       0.00000       0.00000       0.00000       0.00000       0.00000       0.00000       0.00000       0.00000       0.00000       0.00000       0.00000       0.00000  
       3         3         1      1996    recall           pt00020       0.00000       0.00000       0.00000       0.00000       0.00000       0.00000       0.00000       0.00000       0.00000       0.00000       0.00000       0.00000       0.00000       0.00000       0.00000       0.00000       0.00000       0.00000  
       4         4         1      1996    recall           pt00020       0.00000       0.00000       0.00000       0.00000       0.00000       0.00000       0.00000       0.00000       0.00000       0.00000       0.00000       0.00000       0.00000       0.00000       0.00000       0.00000       0.00000       0.00000  
       5         5         1      1996    recall           pt00020       0.00000       0.00000       0.00000       0.00000       0.00000       0.00000       0.00000       0.00000       0.00000       0.00000       0.00000       0.00000       0.00000       0.00000       0.00000       0.00000       0.00000       0.00000  
       6         6         1      1996    recall           pt00020       0.00000       0.00000       0.00000       0.00000       0.00000       0.00000       0.00000       0.00000       0.00000       0.00000       0.00000       0.00000       0.00000       0.00000       0.00000       0.00000       0.00000       0.00000  
       7         7         1      1996    recall           pt00020       0.00000       0.00000       0.00000       0.00000       0.00000       0.00000       0.00000       0.00000       0.00000       0.00000       0.00000       0.00000       0.00000       0.00000       0.00000       0.00000       0.00000       0.00000  
       8         8         1      1996    recall           pt00020       0.00000       0.00000       0.00000       0.00000       0.00000       0.00000       0.00000       0.00000       0.00000       0.00000       0.00000       0.00000       0.00000       0.00000       0.00000       0.00000       0.00000       0.00000  
       9         9         1      1996    recall           pt00020       0.00000       0.00000       0.00000       0.00000       0.00000       0.00000       0.00000       0.00000       0.00000       0.00000       0.00000       0.00000       0.00000       0.00000       0.00000       0.00000       0.00000       0.00000  
      10        10         1      1996    recall           pt00020       0.00000       0.00000       0.00000       0.00000       0.00000       0.00000       0.00000       0.00000       0.00000       0.00000       0.00000       0.00000       0.00000       0.00000       0.00000       0.00000       0.00000       0.00000  
      11        11         1      1996    recall           pt00020       0.00000       0.00000       0.00000       0.00000       0.00000       0.00000       0.00000       0.00000       0.00000       0.00000       0.00000       0.00000       0.00000       0.00000       0.00000       0.00000       0.00000       0.00000  
      12        12         1      1996    recall           pt00020       0.00000       0.00000       0.00000       0.00000       0.00000       0.00000       0.00000       0.00000       0.00000       0.00000       0.00000       0.00000       0.00000       0.00000       0.00000       0.00000       0.00000       0.00000  
       1         1         1      1997    recall           pt00020      38.33073       0.00099       0.00000       0.00000       0.00000       0.00000       0.00000       0.00000       0.00000       0.00000       0.00000       0.00000       0.00000       0.00000       0.00000       0.00000       0.00000       0.00000  
       2         2         1      1997    recall           pt00020      38.33073       0.00099       0.00000       0.00000       0.00000       0.00000       0.00000       0.00000       0.00000       0.00000       0.00000       0.00000       0.00000       0.00000       0.00000       0.00000       0.00000       0.00000  
       3         3         1      1997    recall           pt00020      38.33073       0.00099       0.00000       0.00000       0.00000       0.00000       0.00000       0.00000       0.00000       0.00000       0.00000       0.00000       0.00000       0.00000       0.00000       0.00000       0.00000       0.00000  
       4         4         1      1997    recall           pt00020      38.33073       0.00099       0.00000       0.00000       0.00000       0.00000       0.00000       0.00000       0.00000       0.00000       0.00000       0.00000       0.00000       0.00000       0.00000       0.00000       0.00000       0.00000  
       5         5         1      1997    recall           pt00020      38.33073       0.00099       0.00000       0.00000       0.00000       0.00000       0.00000       0.00000       0.00000       0.00000       0.00000       0.00000       0.00000       0.00000       0.00000       0.00000       0.00000       0.00000  
       6         6         1      1997    recall           pt00020      38.33073       0.00099       0.00000       0.00000       0.00000       0.00000       0.00000       0.00000       0.00000       0.00000       0.00000       0.00000       0.00000       0.00000       0.00000       0.00000       0.00000       0.00000  
       7         7         1      1997    recall           pt00020      38.33073       0.00099       0.00000       0.00000       0.00000       0.00000       0.00000       0.00000       0.00000       0.00000       0.00000       0.00000       0.00000       0.00000       0.00000       0.00000       0.00000       0.00000  
       8         8         1      1997    recall           pt00020      38.33073       0.00099       0.00000       0.00000       0.00000       0.00000       0.00000       0.00000       0.00000       0.00000       0.00000       0.00000       0.00000       0.00000       0.00000       0.00000       0.00000       0.00000  
       9         9         1      1997    recall           pt00020      38.33073       0.00099       0.00000       0.00000       0.00000       0.00000       0.00000       0.00000       0.00000       0.00000       0.00000       0.00000       0.00000       0.00000       0.00000       0.00000       0.00000       0.00000  
      10        10         1      1997    recall           pt00020      38.33073       0.00099       0.00000       0.00000       0.00000       0.00000       0.00000       0.00000       0.00000       0.00000       0.00000       0.00000       0.00000       0.00000       0.00000       0.00000       0.00000       0.00000  
      11        11         1      1997    recall           pt00020      38.33073       0.00099       0.00000       0.00000       0.00000       0.00000       0.00000       0.00000       0.00000       0.00000       0.00000       0.00000       0.00000       0.00000       0.00000       0.00000       0.00000       0.00000  
      12        12         1      1997    recall           pt00020      38.33073       0.00099       0.00000       0.00000       0.00000       0.00000       0.00000       0.00000       0.00000       0.00000       0.00000       0.00000       0.00000       0.00000       0.00000       0.00000       0.00000       0.00000  
       1         1         1      1998    recall           pt00020      32.85491       0.00099       0.15606       0.06571       0.31212       0.06571       0.00000       1.09243       0.00000       0.82137       0.00000       0.00000       0.00000       0.00000       0.00000       0.00000       0.00000       0.00000  
       2         2         1      1998    recall           pt00020      32.85491       0.00099       0.15606       0.06571       0.31212       0.06571       0.00000       1.09243       0.00000       0.82137       0.00000       0.00000       0.00000       0.00000       0.00000       0.00000       0.00000       0.00000  
       3         3         1      1998    recall           pt00020      32.85491       0.00099       0.15606       0.06571       0.31212       0.06571       0.00000       1.09243       0.00000       0.82137       0.00000       0.00000       0.00000       0.00000       0.00000       0.00000       0.00000       0.00000  
       4         4         1      1998    recall           pt00020      32.85491       0.00099       0.15606       0.06571       0.31212       0.06571       0.00000       1.09243       0.00000       0.82137       0.00000       0.00000       0.00000       0.00000       0.00000       0.00000       0.00000       0.00000  
       5         5         1      1998    recall           pt00020      32.85491       0.00099       0.15606       0.06571       0.31212       0.06571       0.00000       1.09243       0.00000       0.82137       0.00000       0.00000       0.00000       0.00000       0.00000       0.00000       0.00000       0.00000  
       6         6         1      1998    recall           pt00020      32.85491       0.00099       0.15606       0.06571       0.31212       0.06571       0.00000       1.09243       0.00000       0.82137       0.00000       0.00000       0.00000       0.00000       0.00000       0.00000       0.00000       0.00000  
       7         7         1      1998    recall           pt00020      32.85491       0.00099       0.15606       0.06571       0.31212       0.06571       0.00000       1.09243       0.00000       0.82137       0.00000       0.00000       0.00000       0.00000       0.00000       0.00000       0.00000       0.00000  
       8         8         1      1998    recall           pt00020      32.85491       0.00099       0.15606       0.06571       0.31212       0.06571       0.00000       1.09243       0.00000       0.82137       0.00000       0.00000       0.00000       0.00000       0.00000       0.00000       0.00000       0.00000  
       9         9         1      1998    recall           pt00020      32.85491       0.00099       0.15606       0.06571       0.31212       0.06571       0.00000       1.09243       0.00000       0.82137       0.00000       0.00000       0.00000       0.00000       0.00000       0.00000       0.00000       0.00000  
      10        10         1      1998    recall           pt00020      32.85491       0.00099       0.15606       0.06571       0.31212       0.06571       0.00000       1.09243       0.00000       0.82137       0.00000       0.00000       0.00000       0.00000       0.00000       0.00000       0.00000       0.00000  
      11        11         1      1998    recall           pt00020      32.85491       0.00099       0.15606       0.06571       0.31212       0.06571       0.00000       1.09243       0.00000       0.82137       0.00000       0.00000       0.00000       0.00000       0.00000       0.00000       0.00000       0.00000  
      12        12         1      1998    recall           pt00020      32.85491       0.00099       0.15606       0.06571       0.31212       0.06571       0.00000       1.09243       0.00000       0.82137       0.00000       0.00000       0.00000       0.00000       0.00000       0.00000       0.00000       0.00000  
       1         1         1      1999    recall           pt00020      32.85491       0.00099       0.15606       0.16427       0.31212       0.16427       0.00000       1.09243       0.00000       0.82137       0.00000       0.00000       0.00000       0.00000       0.00000       0.00000       0.00000       0.00000  
       2         2         1      1999    recall           pt00020      32.85491       0.00099       0.15606       0.16427       0.31212       0.16427       0.00000       1.09243       0.00000       0.82137       0.00000       0.00000       0.00000       0.00000       0.00000       0.00000       0.00000       0.00000  
       3         3         1      1999    recall           pt00020      32.85491       0.00099       0.15606       0.16427       0.31212       0.16427       0.00000       1.09243       0.00000       0.82137       0.00000       0.00000       0.00000       0.00000       0.00000       0.00000       0.00000       0.00000  
       4         4         1      1999    recall           pt00020      32.85491       0.00099       0.15606       0.16427       0.31212       0.16427       0.00000       1.09243       0.00000       0.82137       0.00000       0.00000       0.00000       0.00000       0.00000       0.00000       0.00000       0.00000  
       5         5         1      1999    recall           pt00020      32.85491       0.00099       0.15606       0.16427       0.31212       0.16427       0.00000       1.09243       0.00000       0.82137       0.00000       0.00000       0.00000       0.00000       0.00000       0.00000       0.00000       0.00000  
       6         6         1      1999    recall           pt00020      32.85491       0.00099       0.15606       0.16427       0.31212       0.16427       0.00000       1.09243       0.00000       0.82137       0.00000       0.00000       0.00000       0.00000       0.00000       0.00000       0.00000       0.00000  
       7         7         1      1999    recall           pt00020      32.85491       0.00099       0.15606       0.16427       0.31212       0.16427       0.00000       1.09243       0.00000       0.82137       0.00000       0.00000       0.00000       0.00000       0.00000       0.00000       0.00000       0.00000  
       8         8         1      1999    recall           pt00020      32.85491       0.00099       0.15606       0.16427       0.31212       0.16427       0.00000       1.09243       0.00000       0.82137       0.00000       0.00000       0.00000       0.00000       0.00000       0.00000       0.00000       0.00000  
       9         9         1      1999    recall           pt00020      32.85491       0.00099       0.15606       0.16427       0.31212       0.16427       0.00000       1.09243       0.00000       0.82137       0.00000       0.00000       0.00000       0.00000       0.00000       0.00000       0.00000       0.00000  
      10        10         1      1999    recall           pt00020      32.85491       0.00099       0.15606       0.16427       0.31212       0.16427       0.00000       1.09243       0.00000       0.82137       0.00000       0.00000       0.00000       0.00000       0.00000       0.00000       0.00000       0.00000  
      11        11         1      1999    recall           pt00020      32.85491       0.00099       0.15606       0.16427       0.31212       0.16427       0.00000       1.09243       0.00000       0.82137       0.00000       0.00000       0.00000       0.00000       0.00000       0.00000       0.00000       0.00000  
      12        12         1      1999    recall           pt00020      32.85491       0.00099       0.15606       0.16427       0.31212       0.16427       0.00000       1.09243       0.00000       0.82137       0.00000       0.00000       0.00000       0.00000       0.00000       0.00000       0.00000       0.00000  
       1         1         1      2000    recall           pt00020      32.85491       0.00099       0.33266       0.08214       0.16017       0.08214       0.00000       0.73924       0.00000       0.82137       0.00000       0.00000       0.00000       0.00000       0.00000       0.00000       0.00000       0.00000  
       2         2         1      2000    recall           pt00020      32.85491       0.00099       0.33266       0.08214       0.16017       0.08214       0.00000       0.73924       0.00000       0.82137       0.00000       0.00000       0.00000       0.00000       0.00000       0.00000       0.00000       0.00000  
       3         3         1      2000    recall           pt00020      32.85491       0.00099       0.33266       0.08214       0.16017       0.08214       0.00000       0.73924       0.00000       0.82137       0.00000       0.00000       0.00000       0.00000       0.00000       0.00000       0.00000       0.00000  
       4         4         1      2000    recall           pt00020      32.85491       0.00099       0.33266       0.08214       0.16017       0.08214       0.00000       0.73924       0.00000       0.82137       0.00000       0.00000       0.00000       0.00000       0.00000       0.00000       0.00000       0.00000  
       5         5         1      2000    recall           pt00020      32.85491       0.00099       0.33266       0.08214       0.16017       0.08214       0.00000       0.73924       0.00000       0.82137       0.00000       0.00000       0.00000       0.00000       0.00000       0.00000       0.00000       0.00000  
       6         6         1      2000    recall           pt00020      32.85491       0.00099       0.33266       0.08214       0.16017       0.08214       0.00000       0.73924       0.00000       0.82137       0.00000       0.00000       0.00000       0.00000       0.00000       0.00000       0.00000       0.00000  
       7         7         1      2000    recall           pt00020      32.85491       0.00099       0.33266       0.08214       0.16017       0.08214       0.00000       0.73924       0.00000       0.82137       0.00000       0.00000       0.00000       0.00000       0.00000       0.00000       0.00000       0.00000  
       8         8         1      2000    recall           pt00020      32.85491       0.00099       0.33266       0.08214       0.16017       0.08214       0.00000       0.73924       0.00000       0.82137       0.00000       0.00000       0.00000       0.00000       0.00000       0.00000       0.00000       0.00000  
       9         9         1      2000    recall           pt00020      32.85491       0.00099       0.33266       0.08214       0.16017       0.08214       0.00000       0.73924       0.00000       0.82137       0.00000       0.00000       0.00000       0.00000       0.00000       0.00000       0.00000       0.00000  
      10        10         1      2000    recall           pt00020      32.85491       0.00099       0.33266       0.08214       0.16017       0.08214       0.00000       0.73924       0.00000       0.82137       0.00000       0.00000       0.00000       0.00000       0.00000       0.00000       0.00000       0.00000  
      11        11         1      2000    recall           pt00020      32.85491       0.00099       0.33266       0.08214       0.16017       0.08214       0.00000       0.73924       0.00000       0.82137       0.00000       0.00000       0.00000       0.00000       0.00000       0.00000       0.00000       0.00000  
      12        12         1      2000    recall           pt00020      32.85491       0.00099       0.33266       0.08214       0.16017       0.08214       0.00000       0.73924       0.00000       0.82137       0.00000       0.00000       0.00000       0.00000       0.00000       0.00000       0.00000       0.00000  
       1         1         1      2001    recall           pt00020      68.44773       0.00205       0.69303       0.17112       0.33368       0.17112       0.00000       1.54007       0.00000       1.71119       0.00000       0.00000       0.00000       0.00000       0.00000       0.00000       0.00000       0.00000  
       2         2         1      2001    recall           pt00020      68.44773       0.00205       0.69303       0.17112       0.33368       0.17112       0.00000       1.54007       0.00000       1.71119       0.00000       0.00000       0.00000       0.00000       0.00000       0.00000       0.00000       0.00000  
       3         3         1      2001    recall           pt00020      68.44773       0.00205       0.69303       0.17112       0.33368       0.17112       0.00000       1.54007       0.00000       1.71119       0.00000       0.00000       0.00000       0.00000       0.00000       0.00000       0.00000       0.00000  
       4         4         1      2001    recall           pt00020      68.44773       0.00205       0.69303       0.17112       0.33368       0.17112       0.00000       1.54007       0.00000       1.71119       0.00000       0.00000       0.00000       0.00000       0.00000       0.00000       0.00000       0.00000  
       5         5         1      2001    recall           pt00020      68.44773       0.00205       0.69303       0.17112       0.33368       0.17112       0.00000       1.54007       0.00000       1.71119       0.00000       0.00000       0.00000       0.00000       0.00000       0.00000       0.00000       0.00000  
       6         6         1      2001    recall           pt00020      68.44773       0.00205       0.69303       0.17112       0.33368       0.17112       0.00000       1.54007       0.00000       1.71119       0.00000       0.00000       0.00000       0.00000       0.00000       0.00000       0.00000       0.00000  
       7         7         1      2001    recall           pt00020      68.44773       0.00205       0.69303       0.17112       0.33368       0.17112       0.00000       1.54007       0.00000       1.71119       0.00000       0.00000       0.00000       0.00000       0.00000       0.00000       0.00000       0.00000  
       8         8         1      2001    recall           pt00020      68.44773       0.00205       0.69303       0.17112       0.33368       0.17112       0.00000       1.54007       0.00000       1.71119       0.00000       0.00000       0.00000       0.00000       0.00000       0.00000       0.00000       0.00000  
       9         9         1      2001    recall           pt00020      68.44773       0.00205       0.69303       0.17112       0.33368       0.17112       0.00000       1.54007       0.00000       1.71119       0.00000       0.00000       0.00000       0.00000       0.00000       0.00000       0.00000       0.00000  
      10        10         1      2001    recall           pt00020      68.44773       0.00205       0.69303       0.17112       0.33368       0.17112       0.00000       1.54007       0.00000       1.71119       0.00000       0.00000       0.00000       0.00000       0.00000       0.00000       0.00000       0.00000  
      11        11         1      2001    recall           pt00020      68.44773       0.00205       0.69303       0.17112       0.33368       0.17112       0.00000       1.54007       0.00000       1.71119       0.00000       0.00000       0.00000       0.00000       0.00000       0.00000       0.00000       0.00000  
      12        12         1      2001    recall           pt00020      68.44773       0.00205       0.69303       0.17112       0.33368       0.17112       0.00000       1.54007       0.00000       1.71119       0.00000       0.00000       0.00000       0.00000       0.00000       0.00000       0.00000       0.00000  
       1         1         1      2002    recall           pt00020      54.75819       0.00120       0.77620       0.19165       0.37372       0.19165       0.00000       1.72488       0.00000       1.91654       0.00000       0.00000       0.00000       0.00000       0.00000       0.00000       0.00000       0.00000  
       2         2         1      2002    recall           pt00020      54.75819       0.00120       0.77620       0.19165       0.37372       0.19165       0.00000       1.72488       0.00000       1.91654       0.00000       0.00000       0.00000       0.00000       0.00000       0.00000       0.00000       0.00000  
       3         3         1      2002    recall           pt00020      54.75819       0.00120       0.77620       0.19165       0.37372       0.19165       0.00000       1.72488       0.00000       1.91654       0.00000       0.00000       0.00000       0.00000       0.00000       0.00000       0.00000       0.00000  
       4         4         1      2002    recall           pt00020      54.75819       0.00120       0.77620       0.19165       0.37372       0.19165       0.00000       1.72488       0.00000       1.91654       0.00000       0.00000       0.00000       0.00000       0.00000       0.00000       0.00000       0.00000  
       5         5         1      2002    recall           pt00020      54.75819       0.00120       0.77620       0.19165       0.37372       0.19165       0.00000       1.72488       0.00000       1.91654       0.00000       0.00000       0.00000       0.00000       0.00000       0.00000       0.00000       0.00000  
       6         6         1      2002    recall           pt00020      54.75819       0.00120       0.77620       0.19165       0.37372       0.19165       0.00000       1.72488       0.00000       1.91654       0.00000       0.00000       0.00000       0.00000       0.00000       0.00000       0.00000       0.00000  
       7         7         1      2002    recall           pt00020      54.75819       0.00120       0.77620       0.19165       0.37372       0.19165       0.00000       1.72488       0.00000       1.91654       0.00000       0.00000       0.00000       0.00000       0.00000       0.00000       0.00000       0.00000  
       8         8         1      2002    recall           pt00020      54.75819       0.00120       0.77620       0.19165       0.37372       0.19165       0.00000       1.72488       0.00000       1.91654       0.00000       0.00000       0.00000       0.00000       0.00000       0.00000       0.00000       0.00000  
       9         9         1      2002    recall           pt00020      54.75819       0.00120       0.77620       0.19165       0.37372       0.19165       0.00000       1.72488       0.00000       1.91654       0.00000       0.00000       0.00000       0.00000       0.00000       0.00000       0.00000       0.00000  
      10        10         1      2002    recall           pt00020      54.75819       0.00120       0.77620       0.19165       0.37372       0.19165       0.00000       1.72488       0.00000       1.91654       0.00000       0.00000       0.00000       0.00000       0.00000       0.00000       0.00000       0.00000  
      11        11         1      2002    recall           pt00020      54.75819       0.00120       0.77620       0.19165       0.37372       0.19165       0.00000       1.72488       0.00000       1.91654       0.00000       0.00000       0.00000       0.00000       0.00000       0.00000       0.00000       0.00000  
      12        12         1      2002    recall           pt00020      54.75819       0.00120       0.77620       0.19165       0.37372       0.19165       0.00000       1.72488       0.00000       1.91654       0.00000       0.00000       0.00000       0.00000       0.00000       0.00000       0.00000       0.00000  
       1         1         1      2003    recall           pt00020      57.49609       0.00126       0.71953       0.17766       0.34644       0.17766       0.00000       1.59897       0.00000       1.77663       0.00000       0.00000       0.00000       0.00000       0.00000       0.00000       0.00000       0.00000  
       2         2         1      2003    recall           pt00020      57.49609       0.00126       0.71953       0.17766       0.34644       0.17766       0.00000       1.59897       0.00000       1.77663       0.00000       0.00000       0.00000       0.00000       0.00000       0.00000       0.00000       0.00000  
       3         3         1      2003    recall           pt00020      57.49609       0.00126       0.71953       0.17766       0.34644       0.17766       0.00000       1.59897       0.00000       1.77663       0.00000       0.00000       0.00000       0.00000       0.00000       0.00000       0.00000       0.00000  
       4         4         1      2003    recall           pt00020      57.49609       0.00126       0.71953       0.17766       0.34644       0.17766       0.00000       1.59897       0.00000       1.77663       0.00000       0.00000       0.00000       0.00000       0.00000       0.00000       0.00000       0.00000  
       5         5         1      2003    recall           pt00020      57.49609       0.00126       0.71953       0.17766       0.34644       0.17766       0.00000       1.59897       0.00000       1.77663       0.00000       0.00000       0.00000       0.00000       0.00000       0.00000       0.00000       0.00000  
       6         6         1      2003    recall           pt00020      57.49609       0.00126       0.71953       0.17766       0.34644       0.17766       0.00000       1.59897       0.00000       1.77663       0.00000       0.00000       0.00000       0.00000       0.00000       0.00000       0.00000       0.00000  
       7         7         1      2003    recall           pt00020      57.49609       0.00126       0.71953       0.17766       0.34644       0.17766       0.00000       1.59897       0.00000       1.77663       0.00000       0.00000       0.00000       0.00000       0.00000       0.00000       0.00000       0.00000  
       8         8         1      2003    recall           pt00020      57.49609       0.00126       0.71953       0.17766       0.34644       0.17766       0.00000       1.59897       0.00000       1.77663       0.00000       0.00000       0.00000       0.00000       0.00000       0.00000       0.00000       0.00000  
       9         9         1      2003    recall           pt00020      57.49609       0.00126       0.71953       0.17766       0.34644       0.17766       0.00000       1.59897       0.00000       1.77663       0.00000       0.00000       0.00000       0.00000       0.00000       0.00000       0.00000       0.00000  
      10        10         1      2003    recall           pt00020      57.49609       0.00126       0.71953       0.17766       0.34644       0.17766       0.00000       1.59897       0.00000       1.77663       0.00000       0.00000       0.00000       0.00000       0.00000       0.00000       0.00000       0.00000  
      11        11         1      2003    recall           pt00020      57.49609       0.00126       0.71953       0.17766       0.34644       0.17766       0.00000       1.59897       0.00000       1.77663       0.00000       0.00000       0.00000       0.00000       0.00000       0.00000       0.00000       0.00000  
      12        12         1      2003    recall           pt00020      57.49609       0.00126       0.71953       0.17766       0.34644       0.17766       0.00000       1.59897       0.00000       1.77663       0.00000       0.00000       0.00000       0.00000       0.00000       0.00000       0.00000       0.00000  
       1         1         1      2004    recall           pt00020      60.23400       0.00096       0.66498       0.08312       0.02409       0.09758       0.00000       0.66257       0.00361       0.90351       0.00000       0.00000       0.00000       0.00000       0.00000       0.00000       0.00000       0.00000  
       2         2         1      2004    recall           pt00020      60.23400       0.00096       0.66498       0.08312       0.02409       0.09758       0.00000       0.66257       0.00361       0.90351       0.00000       0.00000       0.00000       0.00000       0.00000       0.00000       0.00000       0.00000  
       3         3         1      2004    recall           pt00020      60.23400       0.00096       0.66498       0.08312       0.02409       0.09758       0.00000       0.66257       0.00361       0.90351       0.00000       0.00000       0.00000       0.00000       0.00000       0.00000       0.00000       0.00000  
       4         4         1      2004    recall           pt00020      60.23400       0.00096       0.66498       0.08312       0.02409       0.09758       0.00000       0.66257       0.00361       0.90351       0.00000       0.00000       0.00000       0.00000       0.00000       0.00000       0.00000       0.00000  
       5         5         1      2004    recall           pt00020      60.23400       0.00096       0.66498       0.08312       0.02409       0.09758       0.00000       0.66257       0.00361       0.90351       0.00000       0.00000       0.00000       0.00000       0.00000       0.00000       0.00000       0.00000  
       6         6         1      2004    recall           pt00020      60.23400       0.00096       0.66498       0.08312       0.02409       0.09758       0.00000       0.66257       0.00361       0.90351       0.00000       0.00000       0.00000       0.00000       0.00000       0.00000       0.00000       0.00000  
       7         7         1      2004    recall           pt00020      60.23400       0.00096       0.66498       0.08312       0.02409       0.09758       0.00000       0.66257       0.00361       0.90351       0.00000       0.00000       0.00000       0.00000       0.00000       0.00000       0.00000       0.00000  
       8         8         1      2004    recall           pt00020      60.23400       0.00096       0.66498       0.08312       0.02409       0.09758       0.00000       0.66257       0.00361       0.90351       0.00000       0.00000       0.00000       0.00000       0.00000       0.00000       0.00000       0.00000  
       9         9         1      2004    recall           pt00020      60.23400       0.00096       0.66498       0.08312       0.02409       0.09758       0.00000       0.66257       0.00361       0.90351       0.00000       0.00000       0.00000       0.00000       0.00000       0.00000       0.00000       0.00000  
      10        10         1      2004    recall           pt00020      60.23400       0.00096       0.66498       0.08312       0.02409       0.09758       0.00000       0.66257       0.00361       0.90351       0.00000       0.00000       0.00000       0.00000       0.00000       0.00000       0.00000       0.00000  
      11        11         1      2004    recall           pt00020      60.23400       0.00096       0.66498       0.08312       0.02409       0.09758       0.00000       0.66257       0.00361       0.90351       0.00000       0.00000       0.00000       0.00000       0.00000       0.00000       0.00000       0.00000  
      12        12         1      2004    recall           pt00020      60.23400       0.00096       0.66498       0.08312       0.02409       0.09758       0.00000       0.66257       0.00361       0.90351       0.00000       0.00000       0.00000       0.00000       0.00000       0.00000       0.00000       0.00000  
       1         1         1      2005    recall           pt00020      68.44773       0.00125       0.94211       0.07461       0.01301       0.14442       0.00000       0.68448       0.00315       1.09516       0.00000       0.00000       0.00000       0.00000       0.00000       0.00000       0.00000       0.00000  
       2         2         1      2005    recall           pt00020      68.44773       0.00125       0.94211       0.07461       0.01301       0.14442       0.00000       0.68448       0.00315       1.09516       0.00000       0.00000       0.00000       0.00000       0.00000       0.00000       0.00000       0.00000  
       3         3         1      2005    recall           pt00020      68.44773       0.00125       0.94211       0.07461       0.01301       0.14442       0.00000       0.68448       0.00315       1.09516       0.00000       0.00000       0.00000       0.00000       0.00000       0.00000       0.00000       0.00000  
       4         4         1      2005    recall           pt00020      68.44773       0.00125       0.94211       0.07461       0.01301       0.14442       0.00000       0.68448       0.00315       1.09516       0.00000       0.00000       0.00000       0.00000       0.00000       0.00000       0.00000       0.00000  
       5         5         1      2005    recall           pt00020      68.44773       0.00125       0.94211       0.07461       0.01301       0.14442       0.00000       0.68448       0.00315       1.09516       0.00000       0.00000       0.00000       0.00000       0.00000       0.00000       0.00000       0.00000  
       6         6         1      2005    recall           pt00020      68.44773       0.00125       0.94211       0.07461       0.01301       0.14442       0.00000       0.68448       0.00315       1.09516       0.00000       0.00000       0.00000       0.00000       0.00000       0.00000       0.00000       0.00000  
       7         7         1      2005    recall           pt00020      68.44773       0.00125       0.94211       0.07461       0.01301       0.14442       0.00000       0.68448       0.00315       1.09516       0.00000       0.00000       0.00000       0.00000       0.00000       0.00000       0.00000       0.00000  
       8         8         1      2005    recall           pt00020      68.44773       0.00125       0.94211       0.07461       0.01301       0.14442       0.00000       0.68448       0.00315       1.09516       0.00000       0.00000       0.00000       0.00000       0.00000       0.00000       0.00000       0.00000  
       9         9         1      2005    recall           pt00020      68.44773       0.00125       0.94211       0.07461       0.01301       0.14442       0.00000       0.68448       0.00315       1.09516       0.00000       0.00000       0.00000       0.00000       0.00000       0.00000       0.00000       0.00000  
      10        10         1      2005    recall           pt00020      68.44773       0.00125       0.94211       0.07461       0.01301       0.14442       0.00000       0.68448       0.00315       1.09516       0.00000       0.00000       0.00000       0.00000       0.00000       0.00000       0.00000       0.00000  
      11        11         1      2005    recall           pt00020      68.44773       0.00125       0.94211       0.07461       0.01301       0.14442       0.00000       0.68448       0.00315       1.09516       0.00000       0.00000       0.00000       0.00000       0.00000       0.00000       0.00000       0.00000  
      12        12         1      2005    recall           pt00020      68.44773       0.00125       0.94211       0.07461       0.01301       0.14442       0.00000       0.68448       0.00315       1.09516       0.00000       0.00000       0.00000       0.00000       0.00000       0.00000       0.00000       0.00000  
       1         1         1      2006    recall           pt00020      68.44773       0.00164       1.47046       0.13690       0.03285       0.13690       0.00000       0.54758       0.00253       1.36895       0.00000       0.00000       0.00000       0.00000       0.00000       0.00000       0.00000       0.00000  
       2         2         1      2006    recall           pt00020      68.44773       0.00164       1.47046       0.13690       0.03285       0.13690       0.00000       0.54758       0.00253       1.36895       0.00000       0.00000       0.00000       0.00000       0.00000       0.00000       0.00000       0.00000  
       3         3         1      2006    recall           pt00020      68.44773       0.00164       1.47046       0.13690       0.03285       0.13690       0.00000       0.54758       0.00253       1.36895       0.00000       0.00000       0.00000       0.00000       0.00000       0.00000       0.00000       0.00000  
       4         4         1      2006    recall           pt00020      68.44773       0.00164       1.47046       0.13690       0.03285       0.13690       0.00000       0.54758       0.00253       1.36895       0.00000       0.00000       0.00000       0.00000       0.00000       0.00000       0.00000       0.00000  
       5         5         1      2006    recall           pt00020      68.44773       0.00164       1.47046       0.13690       0.03285       0.13690       0.00000       0.54758       0.00253       1.36895       0.00000       0.00000       0.00000       0.00000       0.00000       0.00000       0.00000       0.00000  
       6         6         1      2006    recall           pt00020      68.44773       0.00164       1.47046       0.13690       0.03285       0.13690       0.00000       0.54758       0.00253       1.36895       0.00000       0.00000       0.00000       0.00000       0.00000       0.00000       0.00000       0.00000  
       7         7         1      2006    recall           pt00020      68.44773       0.00164       1.47046       0.13690       0.03285       0.13690       0.00000       0.54758       0.00253       1.36895       0.00000       0.00000       0.00000       0.00000       0.00000       0.00000       0.00000       0.00000  
       8         8         1      2006    recall           pt00020      68.44773       0.00164       1.47046       0.13690       0.03285       0.13690       0.00000       0.54758       0.00253       1.36895       0.00000       0.00000       0.00000       0.00000       0.00000       0.00000       0.00000       0.00000  
       9         9         1      2006    recall           pt00020      68.44773       0.00164       1.47046       0.13690       0.03285       0.13690       0.00000       0.54758       0.00253       1.36895       0.00000       0.00000       0.00000       0.00000       0.00000       0.00000       0.00000       0.00000  
      10        10         1      2006    recall           pt00020      68.44773       0.00164       1.47046       0.13690       0.03285       0.13690       0.00000       0.54758       0.00253       1.36895       0.00000       0.00000       0.00000       0.00000       0.00000       0.00000       0.00000       0.00000  
      11        11         1      2006    recall           pt00020      68.44773       0.00164       1.47046       0.13690       0.03285       0.13690       0.00000       0.54758       0.00253       1.36895       0.00000       0.00000       0.00000       0.00000       0.00000       0.00000       0.00000       0.00000  
      12        12         1      2006    recall           pt00020      68.44773       0.00164       1.47046       0.13690       0.03285       0.13690       0.00000       0.54758       0.00253       1.36895       0.00000       0.00000       0.00000       0.00000       0.00000       0.00000       0.00000       0.00000  
       1         1         1      2007    recall           pt00020      38.33073       0.00054       0.23995       0.04216       0.00920       0.04216       0.00000       0.37947       0.00383       0.42164       0.00000       0.00000       0.00000       0.00000       0.00000       0.00000       0.00000       0.00000  
       2         2         1      2007    recall           pt00020      38.33073       0.00054       0.23995       0.04216       0.00920       0.04216       0.00000       0.37947       0.00383       0.42164       0.00000       0.00000       0.00000       0.00000       0.00000       0.00000       0.00000       0.00000  
       3         3         1      2007    recall           pt00020      38.33073       0.00054       0.23995       0.04216       0.00920       0.04216       0.00000       0.37947       0.00383       0.42164       0.00000       0.00000       0.00000       0.00000       0.00000       0.00000       0.00000       0.00000  
       4         4         1      2007    recall           pt00020      38.33073       0.00054       0.23995       0.04216       0.00920       0.04216       0.00000       0.37947       0.00383       0.42164       0.00000       0.00000       0.00000       0.00000       0.00000       0.00000       0.00000       0.00000  
       5         5         1      2007    recall           pt00020      38.33073       0.00054       0.23995       0.04216       0.00920       0.04216       0.00000       0.37947       0.00383       0.42164       0.00000       0.00000       0.00000       0.00000       0.00000       0.00000       0.00000       0.00000  
       6         6         1      2007    recall           pt00020      38.33073       0.00054       0.23995       0.04216       0.00920       0.04216       0.00000       0.37947       0.00383       0.42164       0.00000       0.00000       0.00000       0.00000       0.00000       0.00000       0.00000       0.00000  
       7         7         1      2007    recall           pt00020      38.33073       0.00054       0.23995       0.04216       0.00920       0.04216       0.00000       0.37947       0.00383       0.42164       0.00000       0.00000       0.00000       0.00000       0.00000       0.00000       0.00000       0.00000  
       8         8         1      2007    recall           pt00020      38.33073       0.00054       0.23995       0.04216       0.00920       0.04216       0.00000       0.37947       0.00383       0.42164       0.00000       0.00000       0.00000       0.00000       0.00000       0.00000       0.00000       0.00000  
       9         9         1      2007    recall           pt00020      38.33073       0.00054       0.23995       0.04216       0.00920       0.04216       0.00000       0.37947       0.00383       0.42164       0.00000       0.00000       0.00000       0.00000       0.00000       0.00000       0.00000       0.00000  
      10        10         1      2007    recall           pt00020      38.33073       0.00054       0.23995       0.04216       0.00920       0.04216       0.00000       0.37947       0.00383       0.42164       0.00000       0.00000       0.00000       0.00000       0.00000       0.00000       0.00000       0.00000  
      11        11         1      2007    recall           pt00020      38.33073       0.00054       0.23995       0.04216       0.00920       0.04216       0.00000       0.37947       0.00383       0.42164       0.00000       0.00000       0.00000       0.00000       0.00000       0.00000       0.00000       0.00000  
      12        12         1      2007    recall           pt00020      38.33073       0.00054       0.23995       0.04216       0.00920       0.04216       0.00000       0.37947       0.00383       0.42164       0.00000       0.00000       0.00000       0.00000       0.00000       0.00000       0.00000       0.00000  
       1         1         1      2008    recall           pt00020       0.00000       0.00000       0.00000       0.00000       0.00000       0.00000       0.00000       0.00000       0.00000       0.00000       0.00000       0.00000       0.00000       0.00000       0.00000       0.00000       0.00000       0.00000  
       2         2         1      2008    recall           pt00020       0.00000       0.00000       0.00000       0.00000       0.00000       0.00000       0.00000       0.00000       0.00000       0.00000       0.00000       0.00000       0.00000       0.00000       0.00000       0.00000       0.00000       0.00000  
       3         3         1      2008    recall           pt00020       0.00000       0.00000       0.00000       0.00000       0.00000       0.00000       0.00000       0.00000       0.00000       0.00000       0.00000       0.00000       0.00000       0.00000       0.00000       0.00000       0.00000       0.00000  
       4         4         1      2008    recall           pt00020       0.00000       0.00000       0.00000       0.00000       0.00000       0.00000       0.00000       0.00000       0.00000       0.00000       0.00000       0.00000       0.00000       0.00000       0.00000       0.00000       0.00000       0.00000  
       5         5         1      2008    recall           pt00020       0.00000       0.00000       0.00000       0.00000       0.00000       0.00000       0.00000       0.00000       0.00000       0.00000       0.00000       0.00000       0.00000       0.00000       0.00000       0.00000       0.00000       0.00000  
       6         6         1      2008    recall           pt00020       0.00000       0.00000       0.00000       0.00000       0.00000       0.00000       0.00000       0.00000       0.00000       0.00000       0.00000       0.00000       0.00000       0.00000       0.00000       0.00000       0.00000       0.00000  
       7         7         1      2008    recall           pt00020       0.00000       0.00000       0.00000       0.00000       0.00000       0.00000       0.00000       0.00000       0.00000       0.00000       0.00000       0.00000       0.00000       0.00000       0.00000       0.00000       0.00000       0.00000  
       8         8         1      2008    recall           pt00020       0.00000       0.00000       0.00000       0.00000       0.00000       0.00000       0.00000       0.00000       0.00000       0.00000       0.00000       0.00000       0.00000       0.00000       0.00000       0.00000       0.00000       0.00000  
       9         9         1      2008    recall           pt00020       0.00000       0.00000       0.00000       0.00000       0.00000       0.00000       0.00000       0.00000       0.00000       0.00000       0.00000       0.00000       0.00000       0.00000       0.00000       0.00000       0.00000       0.00000  
      10        10         1      2008    recall           pt00020       0.00000       0.00000       0.00000       0.00000       0.00000       0.00000       0.00000       0.00000       0.00000       0.00000       0.00000       0.00000       0.00000       0.00000       0.00000       0.00000       0.00000       0.00000  
      11        11         1      2008    recall           pt00020       0.00000       0.00000       0.00000       0.00000       0.00000       0.00000       0.00000       0.00000       0.00000       0.00000       0.00000       0.00000       0.00000       0.00000       0.00000       0.00000       0.00000       0.00000  
      12        12         1      2008    recall           pt00020       0.00000       0.00000       0.00000       0.00000       0.00000       0.00000       0.00000       0.00000       0.00000       0.00000       0.00000       0.00000       0.00000       0.00000       0.00000       0.00000       0.00000       0.00000  
       1         1         1      2009    recall           pt00020       0.00000       0.00000       0.00000       0.00000       0.00000       0.00000       0.00000       0.00000       0.00000       0.00000       0.00000       0.00000       0.00000       0.00000       0.00000       0.00000       0.00000       0.00000  
       2         2         1      2009    recall           pt00020       0.00000       0.00000       0.00000       0.00000       0.00000       0.00000       0.00000       0.00000       0.00000       0.00000       0.00000       0.00000       0.00000       0.00000       0.00000       0.00000       0.00000       0.00000  
       3         3         1      2009    recall           pt00020       0.00000       0.00000       0.00000       0.00000       0.00000       0.00000       0.00000       0.00000       0.00000       0.00000       0.00000       0.00000       0.00000       0.00000       0.00000       0.00000       0.00000       0.00000  
       4         4         1      2009    recall           pt00020       0.00000       0.00000       0.00000       0.00000       0.00000       0.00000       0.00000       0.00000       0.00000       0.00000       0.00000       0.00000       0.00000       0.00000       0.00000       0.00000       0.00000       0.00000  
       5         5         1      2009    recall           pt00020       0.00000       0.00000       0.00000       0.00000       0.00000       0.00000       0.00000       0.00000       0.00000       0.00000       0.00000       0.00000       0.00000       0.00000       0.00000       0.00000       0.00000       0.00000  
       6         6         1      2009    recall           pt00020       0.00000       0.00000       0.00000       0.00000       0.00000       0.00000       0.00000       0.00000       0.00000       0.00000       0.00000       0.00000       0.00000       0.00000       0.00000       0.00000       0.00000       0.00000  
       7         7         1      2009    recall           pt00020       0.00000       0.00000       0.00000       0.00000       0.00000       0.00000       0.00000       0.00000       0.00000       0.00000       0.00000       0.00000       0.00000       0.00000       0.00000       0.00000       0.00000       0.00000  
       8         8         1      2009    recall           pt00020       0.00000       0.00000       0.00000       0.00000       0.00000       0.00000       0.00000       0.00000       0.00000       0.00000       0.00000       0.00000       0.00000       0.00000       0.00000       0.00000       0.00000       0.00000  
       9         9         1      2009    recall           pt00020       0.00000       0.00000       0.00000       0.00000       0.00000       0.00000       0.00000       0.00000       0.00000       0.00000       0.00000       0.00000       0.00000       0.00000       0.00000       0.00000       0.00000       0.00000  
      10        10         1      2009    recall           pt00020       0.00000       0.00000       0.00000       0.00000       0.00000       0.00000       0.00000       0.00000       0.00000       0.00000       0.00000       0.00000       0.00000       0.00000       0.00000       0.00000       0.00000       0.00000  
      11        11         1      2009    recall           pt00020       0.00000       0.00000       0.00000       0.00000       0.00000       0.00000       0.00000       0.00000       0.00000       0.00000       0.00000       0.00000       0.00000       0.00000       0.00000       0.00000       0.00000       0.00000  
      12        12         1      2009    recall           pt00020       0.00000       0.00000       0.00000       0.00000       0.00000       0.00000       0.00000       0.00000       0.00000       0.00000       0.00000       0.00000       0.00000       0.00000       0.00000       0.00000       0.00000       0.00000  
       1         1         1      2010    recall           pt00020       0.00000       0.00000       0.00000       0.00000       0.00000       0.00000       0.00000       0.00000       0.00000       0.00000       0.00000       0.00000       0.00000       0.00000       0.00000       0.00000       0.00000       0.00000  
       2         2         1      2010    recall           pt00020       0.00000       0.00000       0.00000       0.00000       0.00000       0.00000       0.00000       0.00000       0.00000       0.00000       0.00000       0.00000       0.00000       0.00000       0.00000       0.00000       0.00000       0.00000  
       3         3         1      2010    recall           pt00020       0.00000       0.00000       0.00000       0.00000       0.00000       0.00000       0.00000       0.00000       0.00000       0.00000       0.00000       0.00000       0.00000       0.00000       0.00000       0.00000       0.00000       0.00000  
       4         4         1      2010    recall           pt00020       0.00000       0.00000       0.00000       0.00000       0.00000       0.00000       0.00000       0.00000       0.00000       0.00000       0.00000       0.00000       0.00000       0.00000       0.00000       0.00000       0.00000       0.00000  
       5         5         1      2010    recall           pt00020       0.00000       0.00000       0.00000       0.00000       0.00000       0.00000       0.00000       0.00000       0.00000       0.00000       0.00000       0.00000       0.00000       0.00000       0.00000       0.00000       0.00000       0.00000  
       6         6         1      2010    recall           pt00020       0.00000       0.00000       0.00000       0.00000       0.00000       0.00000       0.00000       0.00000       0.00000       0.00000       0.00000       0.00000       0.00000       0.00000       0.00000       0.00000       0.00000       0.00000  
       7         7         1      2010    recall           pt00020       0.00000       0.00000       0.00000       0.00000       0.00000       0.00000       0.00000       0.00000       0.00000       0.00000       0.00000       0.00000       0.00000       0.00000       0.00000       0.00000       0.00000       0.00000  
       8         8         1      2010    recall           pt00020       0.00000       0.00000       0.00000       0.00000       0.00000       0.00000       0.00000       0.00000       0.00000       0.00000       0.00000       0.00000       0.00000       0.00000       0.00000       0.00000       0.00000       0.00000  
       9         9         1      2010    recall           pt00020       0.00000       0.00000       0.00000       0.00000       0.00000       0.00000       0.00000       0.00000       0.00000       0.00000       0.00000       0.00000       0.00000       0.00000       0.00000       0.00000       0.00000       0.00000  
      10        10         1      2010    recall           pt00020       0.00000       0.00000       0.00000       0.00000       0.00000       0.00000       0.00000       0.00000       0.00000       0.00000       0.00000       0.00000       0.00000       0.00000       0.00000       0.00000       0.00000       0.00000  
      11        11         1      2010    recall           pt00020       0.00000       0.00000       0.00000       0.00000       0.00000       0.00000       0.00000       0.00000       0.00000       0.00000       0.00000       0.00000       0.00000       0.00000       0.00000       0.00000       0.00000       0.00000  
      12        12         1      2010    recall           pt00020       0.00000       0.00000       0.00000       0.00000       0.00000       0.00000       0.00000       0.00000       0.00000       0.00000       0.00000       0.00000       0.00000       0.00000       0.00000       0.00000       0.00000       0.00000  
       1         1         1      2011    recall           pt00020       5.47582       0.00005       0.01747       0.01369       0.00986       0.01040       0.00000       0.09856       0.00060       0.06023       0.00000       0.00000       0.00000       0.00000       0.00000       0.00000       0.00000       0.00000  
       2         2         1      2011    recall           pt00020       5.47582       0.00005       0.01747       0.01369       0.00986       0.01040       0.00000       0.09856       0.00060       0.06023       0.00000       0.00000       0.00000       0.00000       0.00000       0.00000       0.00000       0.00000  
       3         3         1      2011    recall           pt00020       5.47582       0.00005       0.01747       0.01369       0.00986       0.01040       0.00000       0.09856       0.00060       0.06023       0.00000       0.00000       0.00000       0.00000       0.00000       0.00000       0.00000       0.00000  
       4         4         1      2011    recall           pt00020       5.47582       0.00005       0.01747       0.01369       0.00986       0.01040       0.00000       0.09856       0.00060       0.06023       0.00000       0.00000       0.00000       0.00000       0.00000       0.00000       0.00000       0.00000  
       5         5         1      2011    recall           pt00020       5.47582       0.00005       0.01747       0.01369       0.00986       0.01040       0.00000       0.09856       0.00060       0.06023       0.00000       0.00000       0.00000       0.00000       0.00000       0.00000       0.00000       0.00000  
       6         6         1      2011    recall           pt00020       5.47582       0.00005       0.01747       0.01369       0.00986       0.01040       0.00000       0.09856       0.00060       0.06023       0.00000       0.00000       0.00000       0.00000       0.00000       0.00000       0.00000       0.00000  
       7         7         1      2011    recall           pt00020       5.47582       0.00005       0.01747       0.01369       0.00986       0.01040       0.00000       0.09856       0.00060       0.06023       0.00000       0.00000       0.00000       0.00000       0.00000       0.00000       0.00000       0.00000  
       8         8         1      2011    recall           pt00020       5.47582       0.00005       0.01747       0.01369       0.00986       0.01040       0.00000       0.09856       0.00060       0.06023       0.00000       0.00000       0.00000       0.00000       0.00000       0.00000       0.00000       0.00000  
       9         9         1      2011    recall           pt00020       5.47582       0.00005       0.01747       0.01369       0.00986       0.01040       0.00000       0.09856       0.00060       0.06023       0.00000       0.00000       0.00000       0.00000       0.00000       0.00000       0.00000       0.00000  
      10        10         1      2011    recall           pt00020       5.47582       0.00005       0.01747       0.01369       0.00986       0.01040       0.00000       0.09856       0.00060       0.06023       0.00000       0.00000       0.00000       0.00000       0.00000       0.00000       0.00000       0.00000  
      11        11         1      2011    recall           pt00020       5.47582       0.00005       0.01747       0.01369       0.00986       0.01040       0.00000       0.09856       0.00060       0.06023       0.00000       0.00000       0.00000       0.00000       0.00000       0.00000       0.00000       0.00000  
      12        12         1      2011    recall           pt00020       5.47582       0.00005       0.01747       0.01369       0.00986       0.01040       0.00000       0.09856       0.00060       0.06023       0.00000       0.00000       0.00000       0.00000       0.00000       0.00000       0.00000       0.00000  
       1         1         1      2012    recall           pt00020       5.47582       0.00013       0.14708       0.03247       0.03888       0.01353       0.00000       0.05476       0.00077       0.11499       0.00000       0.00000       0.00000       0.00000       0.00000       0.00000       0.00000       0.00000  
       2         2         1      2012    recall           pt00020       5.47582       0.00013       0.14708       0.03247       0.03888       0.01353       0.00000       0.05476       0.00077       0.11499       0.00000       0.00000       0.00000       0.00000       0.00000       0.00000       0.00000       0.00000  
       3         3         1      2012    recall           pt00020       5.47582       0.00013       0.14708       0.03247       0.03888       0.01353       0.00000       0.05476       0.00077       0.11499       0.00000       0.00000       0.00000       0.00000       0.00000       0.00000       0.00000       0.00000  
       4         4         1      2012    recall           pt00020       5.47582       0.00013       0.14708       0.03247       0.03888       0.01353       0.00000       0.05476       0.00077       0.11499       0.00000       0.00000       0.00000       0.00000       0.00000       0.00000       0.00000       0.00000  
       5         5         1      2012    recall           pt00020       5.47582       0.00013       0.14708       0.03247       0.03888       0.01353       0.00000       0.05476       0.00077       0.11499       0.00000       0.00000       0.00000       0.00000       0.00000       0.00000       0.00000       0.00000  
       6         6         1      2012    recall           pt00020       5.47582       0.00013       0.14708       0.03247       0.03888       0.01353       0.00000       0.05476       0.00077       0.11499       0.00000       0.00000       0.00000       0.00000       0.00000       0.00000       0.00000       0.00000  
       7         7         1      2012    recall           pt00020       5.47582       0.00013       0.14708       0.03247       0.03888       0.01353       0.00000       0.05476       0.00077       0.11499       0.00000       0.00000       0.00000       0.00000       0.00000       0.00000       0.00000       0.00000  
       8         8         1      2012    recall           pt00020       5.47582       0.00013       0.14708       0.03247       0.03888       0.01353       0.00000       0.05476       0.00077       0.11499       0.00000       0.00000       0.00000       0.00000       0.00000       0.00000       0.00000       0.00000  
       9         9         1      2012    recall           pt00020       5.47582       0.00013       0.14708       0.03247       0.03888       0.01353       0.00000       0.05476       0.00077       0.11499       0.00000       0.00000       0.00000       0.00000       0.00000       0.00000       0.00000       0.00000  
      10        10         1      2012    recall           pt00020       5.47582       0.00013       0.14708       0.03247       0.03888       0.01353       0.00000       0.05476       0.00077       0.11499       0.00000       0.00000       0.00000       0.00000       0.00000       0.00000       0.00000       0.00000  
      11        11         1      2012    recall           pt00020       5.47582       0.00013       0.14708       0.03247       0.03888       0.01353       0.00000       0.05476       0.00077       0.11499       0.00000       0.00000       0.00000       0.00000       0.00000       0.00000       0.00000       0.00000  
      12        12         1      2012    recall           pt00020       5.47582       0.00013       0.14708       0.03247       0.03888       0.01353       0.00000       0.05476       0.00077       0.11499       0.00000       0.00000       0.00000       0.00000       0.00000       0.00000       0.00000       0.00000  
       1         1         1      2013    recall           pt00020       3.55928       0.00010       0.00000       0.00142       0.00171       0.00427       0.00000       0.09610       0.00050       0.05695       0.00000       0.00000       0.00000       0.00000       0.00000       0.00000       0.00000       0.00000  
       2         2         1      2013    recall           pt00020       3.55928       0.00010       0.00000       0.00142       0.00171       0.00427       0.00000       0.09610       0.00050       0.05695       0.00000       0.00000       0.00000       0.00000       0.00000       0.00000       0.00000       0.00000  
       3         3         1      2013    recall           pt00020       3.55928       0.00010       0.00000       0.00142       0.00171       0.00427       0.00000       0.09610       0.00050       0.05695       0.00000       0.00000       0.00000       0.00000       0.00000       0.00000       0.00000       0.00000  
       4         4         1      2013    recall           pt00020       3.55928       0.00010       0.00000       0.00142       0.00171       0.00427       0.00000       0.09610       0.00050       0.05695       0.00000       0.00000       0.00000       0.00000       0.00000       0.00000       0.00000       0.00000  
       5         5         1      2013    recall           pt00020       3.55928       0.00010       0.00000       0.00142       0.00171       0.00427       0.00000       0.09610       0.00050       0.05695       0.00000       0.00000       0.00000       0.00000       0.00000       0.00000       0.00000       0.00000  
       6         6         1      2013    recall           pt00020       3.55928       0.00010       0.00000       0.00142       0.00171       0.00427       0.00000       0.09610       0.00050       0.05695       0.00000       0.00000       0.00000       0.00000       0.00000       0.00000       0.00000       0.00000  
       7         7         1      2013    recall           pt00020       3.55928       0.00010       0.00000       0.00142       0.00171       0.00427       0.00000       0.09610       0.00050       0.05695       0.00000       0.00000       0.00000       0.00000       0.00000       0.00000       0.00000       0.00000  
       8         8         1      2013    recall           pt00020       3.55928       0.00010       0.00000       0.00142       0.00171       0.00427       0.00000       0.09610       0.00050       0.05695       0.00000       0.00000       0.00000       0.00000       0.00000       0.00000       0.00000       0.00000  
       9         9         1      2013    recall           pt00020       3.55928       0.00010       0.00000       0.00142       0.00171       0.00427       0.00000       0.09610       0.00050       0.05695       0.00000       0.00000       0.00000       0.00000       0.00000       0.00000       0.00000       0.00000  
      10        10         1      2013    recall           pt00020       3.55928       0.00010       0.00000       0.00142       0.00171       0.00427       0.00000       0.09610       0.00050       0.05695       0.00000       0.00000       0.00000       0.00000       0.00000       0.00000       0.00000       0.00000  
      11        11         1      2013    recall           pt00020       3.55928       0.00010       0.00000       0.00142       0.00171       0.00427       0.00000       0.09610       0.00050       0.05695       0.00000       0.00000       0.00000       0.00000       0.00000       0.00000       0.00000       0.00000  
      12        12         1      2013    recall           pt00020       3.55928       0.00010       0.00000       0.00142       0.00171       0.00427       0.00000       0.09610       0.00050       0.05695       0.00000       0.00000       0.00000       0.00000       0.00000       0.00000       0.00000       0.00000  
       1         1         1      2014    recall           pt00020       4.38065       0.00007       0.00000       0.00000       0.00859       0.00508       0.00000       0.12266       0.00041       0.03583       0.00000       0.00000       0.00000       0.00000       0.00000       0.00000       0.00000       0.00000  
       2         2         1      2014    recall           pt00020       4.38065       0.00007       0.00000       0.00000       0.00859       0.00508       0.00000       0.12266       0.00041       0.03583       0.00000       0.00000       0.00000       0.00000       0.00000       0.00000       0.00000       0.00000  
       3         3         1      2014    recall           pt00020       4.38065       0.00007       0.00000       0.00000       0.00859       0.00508       0.00000       0.12266       0.00041       0.03583       0.00000       0.00000       0.00000       0.00000       0.00000       0.00000       0.00000       0.00000  
       4         4         1      2014    recall           pt00020       4.38065       0.00007       0.00000       0.00000       0.00859       0.00508       0.00000       0.12266       0.00041       0.03583       0.00000       0.00000       0.00000       0.00000       0.00000       0.00000       0.00000       0.00000  
       5         5         1      2014    recall           pt00020       4.38065       0.00007       0.00000       0.00000       0.00859       0.00508       0.00000       0.12266       0.00041       0.03583       0.00000       0.00000       0.00000       0.00000       0.00000       0.00000       0.00000       0.00000  
       6         6         1      2014    recall           pt00020       4.38065       0.00007       0.00000       0.00000       0.00859       0.00508       0.00000       0.12266       0.00041       0.03583       0.00000       0.00000       0.00000       0.00000       0.00000       0.00000       0.00000       0.00000  
       7         7         1      2014    recall           pt00020       4.38065       0.00007       0.00000       0.00000       0.00859       0.00508       0.00000       0.12266       0.00041       0.03583       0.00000       0.00000       0.00000       0.00000       0.00000       0.00000       0.00000       0.00000  
       8         8         1      2014    recall           pt00020       4.38065       0.00007       0.00000       0.00000       0.00859       0.00508       0.00000       0.12266       0.00041       0.03583       0.00000       0.00000       0.00000       0.00000       0.00000       0.00000       0.00000       0.00000  
[...]
      11        11         1      2014    recall           pt00020       4.38065       0.00007       0.00000       0.00000       0.00859       0.00508       0.00000       0.12266       0.00041       0.03583       0.00000       0.00000       0.00000       0.00000       0.00000       0.00000       0.00000       0.00000  
      12        12         1      2014    recall           pt00020       4.38065       0.00007       0.00000       0.00000       0.00859       0.00508       0.00000       0.12266       0.00041       0.03583       0.00000       0.00000       0.00000       0.00000       0.00000       0.00000       0.00000       0.00000  
       1         1         1      2015    recall           pt00020       3.55928       0.00007       0.00000       0.00000       0.00187       0.00864       0.00000       0.14504       0.00065       0.04531       0.00000       0.00000       0.00000       0.00000       0.00000       0.00000       0.00000       0.00000  
       2         2         1      2015    recall           pt00020       3.55928       0.00007       0.00000       0.00000       0.00187       0.00864       0.00000       0.14504       0.00065       0.04531       0.00000       0.00000       0.00000       0.00000       0.00000       0.00000       0.00000       0.00000  
       3         3         1      2015    recall           pt00020       3.55928       0.00007       0.00000       0.00000       0.00187       0.00864       0.00000       0.14504       0.00065       0.04531       0.00000       0.00000       0.00000       0.00000       0.00000       0.00000       0.00000       0.00000  
       4         4         1      2015    recall           pt00020       3.55928       0.00007       0.00000       0.00000       0.00187       0.00864       0.00000       0.14504       0.00065       0.04531       0.00000       0.00000       0.00000       0.00000       0.00000       0.00000       0.00000       0.00000  
       5         5         1      2015    recall           pt00020       3.55928       0.00007       0.00000       0.00000       0.00187       0.00864       0.00000       0.14504       0.00065       0.04531       0.00000       0.00000       0.00000       0.00000       0.00000       0.00000       0.00000       0.00000  
       6         6         1      2015    recall           pt00020       3.55928       0.00007       0.00000       0.00000       0.00187       0.00864       0.00000       0.14504       0.00065       0.04531       0.00000       0.00000       0.00000       0.00000       0.00000       0.00000       0.00000       0.00000  
       7         7         1      2015    recall           pt00020       3.55928       0.00007       0.00000       0.00000       0.00187       0.00864       0.00000       0.14504       0.00065       0.04531       0.00000       0.00000       0.00000       0.00000       0.00000       0.00000       0.00000       0.00000  
       8         8         1      2015    recall           pt00020       3.55928       0.00007       0.00000       0.00000       0.00187       0.00864       0.00000       0.14504       0.00065       0.04531       0.00000       0.00000       0.00000       0.00000       0.00000       0.00000       0.00000       0.00000  
       9         9         1      2015    recall           pt00020       3.55928       0.00007       0.00000       0.00000       0.00187       0.00864       0.00000       0.14504       0.00065       0.04531       0.00000       0.00000       0.00000       0.00000       0.00000       0.00000       0.00000       0.00000  
      10        10         1      2015    recall           pt00020       3.55928       0.00007       0.00000       0.00000       0.00187       0.00864       0.00000       0.14504       0.00065       0.04531       0.00000       0.00000       0.00000       0.00000       0.00000       0.00000       0.00000       0.00000  
      11        11         1      2015    recall           pt00020       3.55928       0.00007       0.00000       0.00000       0.00187       0.00864       0.00000       0.14504       0.00065       0.04531       0.00000       0.00000       0.00000       0.00000       0.00000       0.00000       0.00000       0.00000  
      12        12         1      2015    recall           pt00020       3.55928       0.00007       0.00000       0.00000       0.00187       0.00864       0.00000       0.14504       0.00065       0.04531       0.00000       0.00000       0.00000       0.00000       0.00000       0.00000       0.00000       0.00000  
       1         1         1      2016    recall           pt00020       3.55928       0.00004       0.00000       0.00000       0.02382       0.00588       0.00000       0.03390       0.00064       0.04152       0.00000       0.00000       0.00000       0.00000       0.00000       0.00000       0.00000       0.00000  
       2         2         1      2016    recall           pt00020       3.55928       0.00004       0.00000       0.00000       0.02382       0.00588       0.00000       0.03390       0.00064       0.04152       0.00000       0.00000       0.00000       0.00000       0.00000       0.00000       0.00000       0.00000  
       3         3         1      2016    recall           pt00020       3.55928       0.00004       0.00000       0.00000       0.02382       0.00588       0.00000       0.03390       0.00064       0.04152       0.00000       0.00000       0.00000       0.00000       0.00000       0.00000       0.00000       0.00000  
       4         4         1      2016    recall           pt00020       3.55928       0.00004       0.00000       0.00000       0.02382       0.00588       0.00000       0.03390       0.00064       0.04152       0.00000       0.00000       0.00000       0.00000       0.00000       0.00000       0.00000       0.00000  
       5         5         1      2016    recall           pt00020       3.55928       0.00004       0.00000       0.00000       0.02382       0.00588       0.00000       0.03390       0.00064       0.04152       0.00000       0.00000       0.00000       0.00000       0.00000       0.00000       0.00000       0.00000  
       6         6         1      2016    recall           pt00020       3.55928       0.00004       0.00000       0.00000       0.02382       0.00588       0.00000       0.03390       0.00064       0.04152       0.00000       0.00000       0.00000       0.00000       0.00000       0.00000       0.00000       0.00000  
       7         7         1      2016    recall           pt00020       3.55928       0.00004       0.00000       0.00000       0.02382       0.00588       0.00000       0.03390       0.00064       0.04152       0.00000       0.00000       0.00000       0.00000       0.00000       0.00000       0.00000       0.00000  
       8         8         1      2016    recall           pt00020       3.55928       0.00004       0.00000       0.00000       0.02382       0.00588       0.00000       0.03390       0.00064       0.04152       0.00000       0.00000       0.00000       0.00000       0.00000       0.00000       0.00000       0.00000  
       9         9         1      2016    recall           pt00020       3.55928       0.00004       0.00000       0.00000       0.02382       0.00588       0.00000       0.03390       0.00064       0.04152       0.00000       0.00000       0.00000       0.00000       0.00000       0.00000       0.00000       0.00000  
      10        10         1      2016    recall           pt00020       3.55928       0.00004       0.00000       0.00000       0.02382       0.00588       0.00000       0.03390       0.00064       0.04152       0.00000       0.00000       0.00000       0.00000       0.00000       0.00000       0.00000       0.00000  
      11        11         1      2016    recall           pt00020       3.55928       0.00004       0.00000       0.00000       0.02382       0.00588       0.00000       0.03390       0.00064       0.04152       0.00000       0.00000       0.00000       0.00000       0.00000       0.00000       0.00000       0.00000  
      12        12         1      2016    recall           pt00020       3.55928       0.00004       0.00000       0.00000       0.02382       0.00588       0.00000       0.03390       0.00064       0.04152       0.00000       0.00000       0.00000       0.00000       0.00000       0.00000       0.00000       0.00000  
       1         1         1      2017    recall           pt00020       4.10686       0.00006       0.00000       0.00000       0.02849       0.00856       0.00000       0.02173       0.00079       0.03466       0.00000       0.00000       0.00000       0.00000       0.00000       0.00000       0.00000       0.00000  
       2         2         1      2017    recall           pt00020       4.10686       0.00006       0.00000       0.00000       0.02849       0.00856       0.00000       0.02173       0.00079       0.03466       0.00000       0.00000       0.00000       0.00000       0.00000       0.00000       0.00000       0.00000  
       3         3         1      2017    recall           pt00020       4.10686       0.00006       0.00000       0.00000       0.02849       0.00856       0.00000       0.02173       0.00079       0.03466       0.00000       0.00000       0.00000       0.00000       0.00000       0.00000       0.00000       0.00000  
       4         4         1      2017    recall           pt00020       4.10686       0.00006       0.00000       0.00000       0.02849       0.00856       0.00000       0.02173       0.00079       0.03466       0.00000       0.00000       0.00000       0.00000       0.00000       0.00000       0.00000       0.00000  
       5         5         1      2017    recall           pt00020       4.10686       0.00006       0.00000       0.00000       0.02849       0.00856       0.00000       0.02173       0.00079       0.03466       0.00000       0.00000       0.00000       0.00000       0.00000       0.00000       0.00000       0.00000  
       6         6         1      2017    recall           pt00020       4.10686       0.00006       0.00000       0.00000       0.02849       0.00856       0.00000       0.02173       0.00079       0.03466       0.00000       0.00000       0.00000       0.00000       0.00000       0.00000       0.00000       0.00000  
       7         7         1      2017    recall           pt00020       4.10686       0.00006       0.00000       0.00000       0.02849       0.00856       0.00000       0.02173       0.00079       0.03466       0.00000       0.00000       0.00000       0.00000       0.00000       0.00000       0.00000       0.00000  
       8         8         1      2017    recall           pt00020       4.10686       0.00006       0.00000       0.00000       0.02849       0.00856       0.00000       0.02173       0.00079       0.03466       0.00000       0.00000       0.00000       0.00000       0.00000       0.00000       0.00000       0.00000  
       9         9         1      2017    recall           pt00020       4.10686       0.00006       0.00000       0.00000       0.02849       0.00856       0.00000       0.02173       0.00079       0.03466       0.00000       0.00000       0.00000       0.00000       0.00000       0.00000       0.00000       0.00000  
      10        10         1      2017    recall           pt00020       4.10686       0.00006       0.00000       0.00000       0.02849       0.00856       0.00000       0.02173       0.00079       0.03466       0.00000       0.00000       0.00000       0.00000       0.00000       0.00000       0.00000       0.00000  
      11        11         1      2017    recall           pt00020       4.10686       0.00006       0.00000       0.00000       0.02849       0.00856       0.00000       0.02173       0.00079       0.03466       0.00000       0.00000       0.00000       0.00000       0.00000       0.00000       0.00000       0.00000  
      12        12         1      2017    recall           pt00020       4.10686       0.00006       0.00000       0.00000       0.02849       0.00856       0.00000       0.02173       0.00079       0.03466       0.00000       0.00000       0.00000       0.00000       0.00000       0.00000       0.00000       0.00000  
       1         1         1      2018    recall           pt00020       3.83307       0.00010       0.00000       0.00000       0.00275       0.01127       0.00000       0.09569       0.00028       0.06132       0.00000       0.00000       0.00000       0.00000       0.00000       0.00000       0.00000       0.00000  
       2         2         1      2018    recall           pt00020       3.83307       0.00010       0.00000       0.00000       0.00275       0.01127       0.00000       0.09569       0.00028       0.06132       0.00000       0.00000       0.00000       0.00000       0.00000       0.00000       0.00000       0.00000  
       3         3         1      2018    recall           pt00020       3.83307       0.00010       0.00000       0.00000       0.00275       0.01127       0.00000       0.09569       0.00028       0.06132       0.00000       0.00000       0.00000       0.00000       0.00000       0.00000       0.00000       0.00000  
       4         4         1      2018    recall           pt00020       3.83307       0.00010       0.00000       0.00000       0.00275       0.01127       0.00000       0.09569       0.00028       0.06132       0.00000       0.00000       0.00000       0.00000       0.00000       0.00000       0.00000       0.00000  
       5         5         1      2018    recall           pt00020       3.83307       0.00010       0.00000       0.00000       0.00275       0.01127       0.00000       0.09569       0.00028       0.06132       0.00000       0.00000       0.00000       0.00000       0.00000       0.00000       0.00000       0.00000  
       6         6         1      2018    recall           pt00020       3.83307       0.00010       0.00000       0.00000       0.00275       0.01127       0.00000       0.09569       0.00028       0.06132       0.00000       0.00000       0.00000       0.00000       0.00000       0.00000       0.00000       0.00000  
       7         7         1      2018    recall           pt00020       3.83307       0.00010       0.00000       0.00000       0.00275       0.01127       0.00000       0.09569       0.00028       0.06132       0.00000       0.00000       0.00000       0.00000       0.00000       0.00000       0.00000       0.00000  
       8         8         1      2018    recall           pt00020       3.83307       0.00010       0.00000       0.00000       0.00275       0.01127       0.00000       0.09569       0.00028       0.06132       0.00000       0.00000       0.00000       0.00000       0.00000       0.00000       0.00000       0.00000  
       9         9         1      2018    recall           pt00020       3.83307       0.00010       0.00000       0.00000       0.00275       0.01127       0.00000       0.09569       0.00028       0.06132       0.00000       0.00000       0.00000       0.00000       0.00000       0.00000       0.00000       0.00000  
      10        10         1      2018    recall           pt00020       3.83307       0.00010       0.00000       0.00000       0.00275       0.01127       0.00000       0.09569       0.00028       0.06132       0.00000       0.00000       0.00000       0.00000       0.00000       0.00000       0.00000       0.00000  
      11        11         1      2018    recall           pt00020       3.83307       0.00010       0.00000       0.00000       0.00275       0.01127       0.00000       0.09569       0.00028       0.06132       0.00000       0.00000       0.00000       0.00000       0.00000       0.00000       0.00000       0.00000  
      12        12         1      2018    recall           pt00020       3.83307       0.00010       0.00000       0.00000       0.00275       0.01127       0.00000       0.09569       0.00028       0.06132       0.00000       0.00000       0.00000       0.00000       0.00000       0.00000       0.00000       0.00000  
       1         1         1      2019    recall           pt00020       3.28275       0.00008       0.00000       0.00000       0.00274       0.02026       0.00000       0.09008       0.00008       0.03833       0.00000       0.00000       0.00000       0.00000       0.00000       0.00000       0.00000       0.00000  
       2         2         1      2019    recall           pt00020       3.28275       0.00008       0.00000       0.00000       0.00274       0.02026       0.00000       0.09008       0.00008       0.03833       0.00000       0.00000       0.00000       0.00000       0.00000       0.00000       0.00000       0.00000  
       3         3         1      2019    recall           pt00020       3.28275       0.00008       0.00000       0.00000       0.00274       0.02026       0.00000       0.09008       0.00008       0.03833       0.00000       0.00000       0.00000       0.00000       0.00000       0.00000       0.00000       0.00000  
       4         4         1      2019    recall           pt00020       3.28275       0.00008       0.00000       0.00000       0.00274       0.02026       0.00000       0.09008       0.00008       0.03833       0.00000       0.00000       0.00000       0.00000       0.00000       0.00000       0.00000       0.00000  
       5         5         1      2019    recall           pt00020       3.28275       0.00008       0.00000       0.00000       0.00274       0.02026       0.00000       0.09008       0.00008       0.03833       0.00000       0.00000       0.00000       0.00000       0.00000       0.00000       0.00000       0.00000  
       6         6         1      2019    recall           pt00020       3.28275       0.00008       0.00000       0.00000       0.00274       0.02026       0.00000       0.09008       0.00008       0.03833       0.00000       0.00000       0.00000       0.00000       0.00000       0.00000       0.00000       0.00000  
       7         7         1      2019    recall           pt00020       3.28275       0.00008       0.00000       0.00000       0.00274       0.02026       0.00000       0.09008       0.00008       0.03833       0.00000       0.00000       0.00000       0.00000       0.00000       0.00000       0.00000       0.00000  
       8         8         1      2019    recall           pt00020       3.28275       0.00008       0.00000       0.00000       0.00274       0.02026       0.00000       0.09008       0.00008       0.03833       0.00000       0.00000       0.00000       0.00000       0.00000       0.00000       0.00000       0.00000  
       9         9         1      2019    recall           pt00020       3.28275       0.00008       0.00000       0.00000       0.00274       0.02026       0.00000       0.09008       0.00008       0.03833       0.00000       0.00000       0.00000       0.00000       0.00000       0.00000       0.00000       0.00000  
      10        10         1      2019    recall           pt00020       3.28275       0.00008       0.00000       0.00000       0.00274       0.02026       0.00000       0.09008       0.00008       0.03833       0.00000       0.00000       0.00000       0.00000       0.00000       0.00000       0.00000       0.00000  
      11        11         1      2019    recall           pt00020       3.28275       0.00008       0.00000       0.00000       0.00274       0.02026       0.00000       0.09008       0.00008       0.03833       0.00000       0.00000       0.00000       0.00000       0.00000       0.00000       0.00000       0.00000  
      12        12         1      2019    recall           pt00020       3.28275       0.00008       0.00000       0.00000       0.00274       0.02026       0.00000       0.09008       0.00008       0.03833       0.00000       0.00000       0.00000       0.00000       0.00000       0.00000       0.00000       0.00000  
