recall.rec: written by SWAT+ editor v2.0.0 on 2022-02-14 13:07
26
    jday        mo    day_mo       iyr    ob_typ           ob_name           flo           sed         ptl_n         ptl_p         no3_n         sol_p          chla         nh3_n         no2_n       cbn_bod           oxy          sand          silt          clay        sm_agg        lg_agg        gravel           tmp  
       1         1         1      1994    recall           pt00022       0.00000       0.00000       0.00000       0.00000       0.00000       0.00000       0.00000       0.00000       0.00000       0.00000       0.00000       0.00000       0.00000       0.00000       0.00000       0.00000       0.00000       0.00000  
       2         2         1      1994    recall           pt00022       0.00000       0.00000       0.00000       0.00000       0.00000       0.00000       0.00000       0.00000       0.00000       0.00000       0.00000       0.00000       0.00000       0.00000       0.00000       0.00000       0.00000       0.00000  
       3         3         1      1994    recall           pt00022       0.00000       0.00000       0.00000       0.00000       0.00000       0.00000       0.00000       0.00000       0.00000       0.00000       0.00000       0.00000       0.00000       0.00000       0.00000       0.00000       0.00000       0.00000  
       4         4         1      1994    recall           pt00022       0.00000       0.00000       0.00000       0.00000       0.00000       0.00000       0.00000       0.00000       0.00000       0.00000       0.00000       0.00000       0.00000       0.00000       0.00000       0.00000       0.00000       0.00000  
       5         5         1      1994    recall           pt00022       0.00000       0.00000       0.00000       0.00000       0.00000       0.00000       0.00000       0.00000       0.00000       0.00000       0.00000       0.00000       0.00000       0.00000       0.00000       0.00000       0.00000       0.00000  
       6         6         1      1994    recall           pt00022       0.00000       0.00000       0.00000       0.00000       0.00000       0.00000       0.00000       0.00000       0.00000       0.00000       0.00000       0.00000       0.00000       0.00000       0.00000       0.00000       0.00000       0.00000  
       7         7         1      1994    recall           pt00022       0.00000       0.00000       0.00000       0.00000       0.00000       0.00000       0.00000       0.00000       0.00000       0.00000       0.00000       0.00000       0.00000       0.00000       0.00000       0.00000       0.00000       0.00000  
       8         8         1      1994    recall           pt00022       0.00000       0.00000       0.00000       0.00000       0.00000       0.00000       0.00000       0.00000       0.00000       0.00000       0.00000       0.00000       0.00000       0.00000       0.00000       0.00000       0.00000       0.00000  
       9         9         1      1994    recall           pt00022       0.00000       0.00000       0.00000       0.00000       0.00000       0.00000       0.00000       0.00000       0.00000       0.00000       0.00000       0.00000       0.00000       0.00000       0.00000       0.00000       0.00000       0.00000  
      10        10         1      1994    recall           pt00022       0.00000       0.00000       0.00000       0.00000       0.00000       0.00000       0.00000       0.00000       0.00000       0.00000       0.00000       0.00000       0.00000       0.00000       0.00000       0.00000       0.00000       0.00000  
      11        11         1      1994    recall           pt00022       0.00000       0.00000       0.00000       0.00000       0.00000       0.00000       0.00000       0.00000       0.00000       0.00000       0.00000       0.00000       0.00000       0.00000       0.00000       0.00000       0.00000       0.00000  
      12        12         1      1994    recall           pt00022       0.00000       0.00000       0.00000       0.00000       0.00000       0.00000       0.00000       0.00000       0.00000       0.00000       0.00000       0.00000       0.00000       0.00000       0.00000       0.00000       0.00000       0.00000  
       1         1         1      1995    recall           pt00022       0.00000       0.00000       0.00000       0.00000       0.00000       0.00000       0.00000       0.00000       0.00000       0.00000       0.00000       0.00000       0.00000       0.00000       0.00000       0.00000       0.00000       0.00000  
       2         2         1      1995    recall           pt00022       0.00000       0.00000       0.00000       0.00000       0.00000       0.00000       0.00000       0.00000       0.00000       0.00000       0.00000       0.00000       0.00000       0.00000       0.00000       0.00000       0.00000       0.00000  
       3         3         1      1995    recall           pt00022       0.00000       0.00000       0.00000       0.00000       0.00000       0.00000       0.00000       0.00000       0.00000       0.00000       0.00000       0.00000       0.00000       0.00000       0.00000       0.00000       0.00000       0.00000  
       4         4         1      1995    recall           pt00022       0.00000       0.00000       0.00000       0.00000       0.00000       0.00000       0.00000       0.00000       0.00000       0.00000       0.00000       0.00000       0.00000       0.00000       0.00000       0.00000       0.00000       0.00000  
       5         5         1      1995    recall           pt00022       0.00000       0.00000       0.00000       0.00000       0.00000       0.00000       0.00000       0.00000       0.00000       0.00000       0.00000       0.00000       0.00000       0.00000       0.00000       0.00000       0.00000       0.00000  
       6         6         1      1995    recall           pt00022       0.00000       0.00000       0.00000       0.00000       0.00000       0.00000       0.00000       0.00000       0.00000       0.00000       0.00000       0.00000       0.00000       0.00000       0.00000       0.00000       0.00000       0.00000  
       7         7         1      1995    recall           pt00022       0.00000       0.00000       0.00000       0.00000       0.00000       0.00000       0.00000       0.00000       0.00000       0.00000       0.00000       0.00000       0.00000       0.00000       0.00000       0.00000       0.00000       0.00000  
       8         8         1      1995    recall           pt00022       0.00000       0.00000       0.00000       0.00000       0.00000       0.00000       0.00000       0.00000       0.00000       0.00000       0.00000       0.00000       0.00000       0.00000       0.00000       0.00000       0.00000       0.00000  
       9         9         1      1995    recall           pt00022       0.00000       0.00000       0.00000       0.00000       0.00000       0.00000       0.00000       0.00000       0.00000       0.00000       0.00000       0.00000       0.00000       0.00000       0.00000       0.00000       0.00000       0.00000  
      10        10         1      1995    recall           pt00022       0.00000       0.00000       0.00000       0.00000       0.00000       0.00000       0.00000       0.00000       0.00000       0.00000       0.00000       0.00000       0.00000       0.00000       0.00000       0.00000       0.00000       0.00000  
      11        11         1      1995    recall           pt00022       0.00000       0.00000       0.00000       0.00000       0.00000       0.00000       0.00000       0.00000       0.00000       0.00000       0.00000       0.00000       0.00000       0.00000       0.00000       0.00000       0.00000       0.00000  
      12        12         1      1995    recall           pt00022       0.00000       0.00000       0.00000       0.00000       0.00000       0.00000       0.00000       0.00000       0.00000       0.00000       0.00000       0.00000       0.00000       0.00000       0.00000       0.00000       0.00000       0.00000  
       1         1         1      1996    recall           pt00022       0.00000       0.00000       0.00000       0.00000       0.00000       0.00000       0.00000       0.00000       0.00000       0.00000       0.00000       0.00000       0.00000       0.00000       0.00000       0.00000       0.00000       0.00000  
       2         2         1      1996    recall           pt00022       0.00000       0.00000       0.00000       0.00000       0.00000       0.00000       0.00000       0.00000       0.00000       0.00000       0.00000       0.00000       0.00000       0.00000       0.00000       0.00000       0.00000       0.00000  
       3         3         1      1996    recall           pt00022       0.00000       0.00000       0.00000       0.00000       0.00000       0.00000       0.00000       0.00000       0.00000       0.00000       0.00000       0.00000       0.00000       0.00000       0.00000       0.00000       0.00000       0.00000  
       4         4         1      1996    recall           pt00022       0.00000       0.00000       0.00000       0.00000       0.00000       0.00000       0.00000       0.00000       0.00000       0.00000       0.00000       0.00000       0.00000       0.00000       0.00000       0.00000       0.00000       0.00000  
       5         5         1      1996    recall           pt00022       0.00000       0.00000       0.00000       0.00000       0.00000       0.00000       0.00000       0.00000       0.00000       0.00000       0.00000       0.00000       0.00000       0.00000       0.00000       0.00000       0.00000       0.00000  
       6         6         1      1996    recall           pt00022       0.00000       0.00000       0.00000       0.00000       0.00000       0.00000       0.00000       0.00000       0.00000       0.00000       0.00000       0.00000       0.00000       0.00000       0.00000       0.00000       0.00000       0.00000  
       7         7         1      1996    recall           pt00022       0.00000       0.00000       0.00000       0.00000       0.00000       0.00000       0.00000       0.00000       0.00000       0.00000       0.00000       0.00000       0.00000       0.00000       0.00000       0.00000       0.00000       0.00000  
       8         8         1      1996    recall           pt00022       0.00000       0.00000       0.00000       0.00000       0.00000       0.00000       0.00000       0.00000       0.00000       0.00000       0.00000       0.00000       0.00000       0.00000       0.00000       0.00000       0.00000       0.00000  
       9         9         1      1996    recall           pt00022       0.00000       0.00000       0.00000       0.00000       0.00000       0.00000       0.00000       0.00000       0.00000       0.00000       0.00000       0.00000       0.00000       0.00000       0.00000       0.00000       0.00000       0.00000  
      10        10         1      1996    recall           pt00022       0.00000       0.00000       0.00000       0.00000       0.00000       0.00000       0.00000       0.00000       0.00000       0.00000       0.00000       0.00000       0.00000       0.00000       0.00000       0.00000       0.00000       0.00000  
      11        11         1      1996    recall           pt00022       0.00000       0.00000       0.00000       0.00000       0.00000       0.00000       0.00000       0.00000       0.00000       0.00000       0.00000       0.00000       0.00000       0.00000       0.00000       0.00000       0.00000       0.00000  
      12        12         1      1996    recall           pt00022       0.00000       0.00000       0.00000       0.00000       0.00000       0.00000       0.00000       0.00000       0.00000       0.00000       0.00000       0.00000       0.00000       0.00000       0.00000       0.00000       0.00000       0.00000  
       1         1         1      1997    recall           pt00022      21.90327       0.00031       0.00000       0.00000       0.00000       0.00000       0.00000       0.00000       0.00000       0.00000       0.00000       0.00000       0.00000       0.00000       0.00000       0.00000       0.00000       0.00000  
       2         2         1      1997    recall           pt00022      21.90327       0.00031       0.00000       0.00000       0.00000       0.00000       0.00000       0.00000       0.00000       0.00000       0.00000       0.00000       0.00000       0.00000       0.00000       0.00000       0.00000       0.00000  
       3         3         1      1997    recall           pt00022      21.90327       0.00031       0.00000       0.00000       0.00000       0.00000       0.00000       0.00000       0.00000       0.00000       0.00000       0.00000       0.00000       0.00000       0.00000       0.00000       0.00000       0.00000  
       4         4         1      1997    recall           pt00022      21.90327       0.00031       0.00000       0.00000       0.00000       0.00000       0.00000       0.00000       0.00000       0.00000       0.00000       0.00000       0.00000       0.00000       0.00000       0.00000       0.00000       0.00000  
       5         5         1      1997    recall           pt00022      21.90327       0.00031       0.00000       0.00000       0.00000       0.00000       0.00000       0.00000       0.00000       0.00000       0.00000       0.00000       0.00000       0.00000       0.00000       0.00000       0.00000       0.00000  
       6         6         1      1997    recall           pt00022      21.90327       0.00031       0.00000       0.00000       0.00000       0.00000       0.00000       0.00000       0.00000       0.00000       0.00000       0.00000       0.00000       0.00000       0.00000       0.00000       0.00000       0.00000  
       7         7         1      1997    recall           pt00022      21.90327       0.00031       0.00000       0.00000       0.00000       0.00000       0.00000       0.00000       0.00000       0.00000       0.00000       0.00000       0.00000       0.00000       0.00000       0.00000       0.00000       0.00000  
       8         8         1      1997    recall           pt00022      21.90327       0.00031       0.00000       0.00000       0.00000       0.00000       0.00000       0.00000       0.00000       0.00000       0.00000       0.00000       0.00000       0.00000       0.00000       0.00000       0.00000       0.00000  
       9         9         1      1997    recall           pt00022      21.90327       0.00031       0.00000       0.00000       0.00000       0.00000       0.00000       0.00000       0.00000       0.00000       0.00000       0.00000       0.00000       0.00000       0.00000       0.00000       0.00000       0.00000  
      10        10         1      1997    recall           pt00022      21.90327       0.00031       0.00000       0.00000       0.00000       0.00000       0.00000       0.00000       0.00000       0.00000       0.00000       0.00000       0.00000       0.00000       0.00000       0.00000       0.00000       0.00000  
      11        11         1      1997    recall           pt00022      21.90327       0.00031       0.00000       0.00000       0.00000       0.00000       0.00000       0.00000       0.00000       0.00000       0.00000       0.00000       0.00000       0.00000       0.00000       0.00000       0.00000       0.00000  
      12        12         1      1997    recall           pt00022      21.90327       0.00031       0.00000       0.00000       0.00000       0.00000       0.00000       0.00000       0.00000       0.00000       0.00000       0.00000       0.00000       0.00000       0.00000       0.00000       0.00000       0.00000  
       1         1         1      1998    recall           pt00022      16.42746       0.00021       0.11171       0.05585       0.06702       0.05585       0.00000       0.26810       0.00000       0.27927       0.00000       0.00000       0.00000       0.00000       0.00000       0.00000       0.00000       0.00000  
       2         2         1      1998    recall           pt00022      16.42746       0.00021       0.11171       0.05585       0.06702       0.05585       0.00000       0.26810       0.00000       0.27927       0.00000       0.00000       0.00000       0.00000       0.00000       0.00000       0.00000       0.00000  
       3         3         1      1998    recall           pt00022      16.42746       0.00021       0.11171       0.05585       0.06702       0.05585       0.00000       0.26810       0.00000       0.27927       0.00000       0.00000       0.00000       0.00000       0.00000       0.00000       0.00000       0.00000  
       4         4         1      1998    recall           pt00022      16.42746       0.00021       0.11171       0.05585       0.06702       0.05585       0.00000       0.26810       0.00000       0.27927       0.00000       0.00000       0.00000       0.00000       0.00000       0.00000       0.00000       0.00000  
       5         5         1      1998    recall           pt00022      16.42746       0.00021       0.11171       0.05585       0.06702       0.05585       0.00000       0.26810       0.00000       0.27927       0.00000       0.00000       0.00000       0.00000       0.00000       0.00000       0.00000       0.00000  
       6         6         1      1998    recall           pt00022      16.42746       0.00021       0.11171       0.05585       0.06702       0.05585       0.00000       0.26810       0.00000       0.27927       0.00000       0.00000       0.00000       0.00000       0.00000       0.00000       0.00000       0.00000  
       7         7         1      1998    recall           pt00022      16.42746       0.00021       0.11171       0.05585       0.06702       0.05585       0.00000       0.26810       0.00000       0.27927       0.00000       0.00000       0.00000       0.00000       0.00000       0.00000       0.00000       0.00000  
       8         8         1      1998    recall           pt00022      16.42746       0.00021       0.11171       0.05585       0.06702       0.05585       0.00000       0.26810       0.00000       0.27927       0.00000       0.00000       0.00000       0.00000       0.00000       0.00000       0.00000       0.00000  
       9         9         1      1998    recall           pt00022      16.42746       0.00021       0.11171       0.05585       0.06702       0.05585       0.00000       0.26810       0.00000       0.27927       0.00000       0.00000       0.00000       0.00000       0.00000       0.00000       0.00000       0.00000  
      10        10         1      1998    recall           pt00022      16.42746       0.00021       0.11171       0.05585       0.06702       0.05585       0.00000       0.26810       0.00000       0.27927       0.00000       0.00000       0.00000       0.00000       0.00000       0.00000       0.00000       0.00000  
      11        11         1      1998    recall           pt00022      16.42746       0.00021       0.11171       0.05585       0.06702       0.05585       0.00000       0.26810       0.00000       0.27927       0.00000       0.00000       0.00000       0.00000       0.00000       0.00000       0.00000       0.00000  
      12        12         1      1998    recall           pt00022      16.42746       0.00021       0.11171       0.05585       0.06702       0.05585       0.00000       0.26810       0.00000       0.27927       0.00000       0.00000       0.00000       0.00000       0.00000       0.00000       0.00000       0.00000  
       1         1         1      1999    recall           pt00022      13.68955       0.00022       0.06571       0.03285       0.03943       0.03285       0.00000       0.15770       0.00000       0.16427       0.00000       0.00000       0.00000       0.00000       0.00000       0.00000       0.00000       0.00000  
       2         2         1      1999    recall           pt00022      13.68955       0.00022       0.06571       0.03285       0.03943       0.03285       0.00000       0.15770       0.00000       0.16427       0.00000       0.00000       0.00000       0.00000       0.00000       0.00000       0.00000       0.00000  
       3         3         1      1999    recall           pt00022      13.68955       0.00022       0.06571       0.03285       0.03943       0.03285       0.00000       0.15770       0.00000       0.16427       0.00000       0.00000       0.00000       0.00000       0.00000       0.00000       0.00000       0.00000  
       4         4         1      1999    recall           pt00022      13.68955       0.00022       0.06571       0.03285       0.03943       0.03285       0.00000       0.15770       0.00000       0.16427       0.00000       0.00000       0.00000       0.00000       0.00000       0.00000       0.00000       0.00000  
       5         5         1      1999    recall           pt00022      13.68955       0.00022       0.06571       0.03285       0.03943       0.03285       0.00000       0.15770       0.00000       0.16427       0.00000       0.00000       0.00000       0.00000       0.00000       0.00000       0.00000       0.00000  
       6         6         1      1999    recall           pt00022      13.68955       0.00022       0.06571       0.03285       0.03943       0.03285       0.00000       0.15770       0.00000       0.16427       0.00000       0.00000       0.00000       0.00000       0.00000       0.00000       0.00000       0.00000  
       7         7         1      1999    recall           pt00022      13.68955       0.00022       0.06571       0.03285       0.03943       0.03285       0.00000       0.15770       0.00000       0.16427       0.00000       0.00000       0.00000       0.00000       0.00000       0.00000       0.00000       0.00000  
       8         8         1      1999    recall           pt00022      13.68955       0.00022       0.06571       0.03285       0.03943       0.03285       0.00000       0.15770       0.00000       0.16427       0.00000       0.00000       0.00000       0.00000       0.00000       0.00000       0.00000       0.00000  
       9         9         1      1999    recall           pt00022      13.68955       0.00022       0.06571       0.03285       0.03943       0.03285       0.00000       0.15770       0.00000       0.16427       0.00000       0.00000       0.00000       0.00000       0.00000       0.00000       0.00000       0.00000  
      10        10         1      1999    recall           pt00022      13.68955       0.00022       0.06571       0.03285       0.03943       0.03285       0.00000       0.15770       0.00000       0.16427       0.00000       0.00000       0.00000       0.00000       0.00000       0.00000       0.00000       0.00000  
      11        11         1      1999    recall           pt00022      13.68955       0.00022       0.06571       0.03285       0.03943       0.03285       0.00000       0.15770       0.00000       0.16427       0.00000       0.00000       0.00000       0.00000       0.00000       0.00000       0.00000       0.00000  
      12        12         1      1999    recall           pt00022      13.68955       0.00022       0.06571       0.03285       0.03943       0.03285       0.00000       0.15770       0.00000       0.16427       0.00000       0.00000       0.00000       0.00000       0.00000       0.00000       0.00000       0.00000  
       1         1         1      2000    recall           pt00022      10.95164       0.00012       0.05695       0.02847       0.03417       0.02847       0.00000       0.13668       0.00000       0.14237       0.00000       0.00000       0.00000       0.00000       0.00000       0.00000       0.00000       0.00000  
       2         2         1      2000    recall           pt00022      10.95164       0.00012       0.05695       0.02847       0.03417       0.02847       0.00000       0.13668       0.00000       0.14237       0.00000       0.00000       0.00000       0.00000       0.00000       0.00000       0.00000       0.00000  
       3         3         1      2000    recall           pt00022      10.95164       0.00012       0.05695       0.02847       0.03417       0.02847       0.00000       0.13668       0.00000       0.14237       0.00000       0.00000       0.00000       0.00000       0.00000       0.00000       0.00000       0.00000  
       4         4         1      2000    recall           pt00022      10.95164       0.00012       0.05695       0.02847       0.03417       0.02847       0.00000       0.13668       0.00000       0.14237       0.00000       0.00000       0.00000       0.00000       0.00000       0.00000       0.00000       0.00000  
       5         5         1      2000    recall           pt00022      10.95164       0.00012       0.05695       0.02847       0.03417       0.02847       0.00000       0.13668       0.00000       0.14237       0.00000       0.00000       0.00000       0.00000       0.00000       0.00000       0.00000       0.00000  
       6         6         1      2000    recall           pt00022      10.95164       0.00012       0.05695       0.02847       0.03417       0.02847       0.00000       0.13668       0.00000       0.14237       0.00000       0.00000       0.00000       0.00000       0.00000       0.00000       0.00000       0.00000  
       7         7         1      2000    recall           pt00022      10.95164       0.00012       0.05695       0.02847       0.03417       0.02847       0.00000       0.13668       0.00000       0.14237       0.00000       0.00000       0.00000       0.00000       0.00000       0.00000       0.00000       0.00000  
       8         8         1      2000    recall           pt00022      10.95164       0.00012       0.05695       0.02847       0.03417       0.02847       0.00000       0.13668       0.00000       0.14237       0.00000       0.00000       0.00000       0.00000       0.00000       0.00000       0.00000       0.00000  
       9         9         1      2000    recall           pt00022      10.95164       0.00012       0.05695       0.02847       0.03417       0.02847       0.00000       0.13668       0.00000       0.14237       0.00000       0.00000       0.00000       0.00000       0.00000       0.00000       0.00000       0.00000  
      10        10         1      2000    recall           pt00022      10.95164       0.00012       0.05695       0.02847       0.03417       0.02847       0.00000       0.13668       0.00000       0.14237       0.00000       0.00000       0.00000       0.00000       0.00000       0.00000       0.00000       0.00000  
      11        11         1      2000    recall           pt00022      10.95164       0.00012       0.05695       0.02847       0.03417       0.02847       0.00000       0.13668       0.00000       0.14237       0.00000       0.00000       0.00000       0.00000       0.00000       0.00000       0.00000       0.00000  
      12        12         1      2000    recall           pt00022      10.95164       0.00012       0.05695       0.02847       0.03417       0.02847       0.00000       0.13668       0.00000       0.14237       0.00000       0.00000       0.00000       0.00000       0.00000       0.00000       0.00000       0.00000  
       1         1         1      2001    recall           pt00022      10.95164       0.00010       0.04381       0.02190       0.02628       0.02190       0.00000       0.10514       0.00000       0.10952       0.00000       0.00000       0.00000       0.00000       0.00000       0.00000       0.00000       0.00000  
       2         2         1      2001    recall           pt00022      10.95164       0.00010       0.04381       0.02190       0.02628       0.02190       0.00000       0.10514       0.00000       0.10952       0.00000       0.00000       0.00000       0.00000       0.00000       0.00000       0.00000       0.00000  
       3         3         1      2001    recall           pt00022      10.95164       0.00010       0.04381       0.02190       0.02628       0.02190       0.00000       0.10514       0.00000       0.10952       0.00000       0.00000       0.00000       0.00000       0.00000       0.00000       0.00000       0.00000  
       4         4         1      2001    recall           pt00022      10.95164       0.00010       0.04381       0.02190       0.02628       0.02190       0.00000       0.10514       0.00000       0.10952       0.00000       0.00000       0.00000       0.00000       0.00000       0.00000       0.00000       0.00000  
       5         5         1      2001    recall           pt00022      10.95164       0.00010       0.04381       0.02190       0.02628       0.02190       0.00000       0.10514       0.00000       0.10952       0.00000       0.00000       0.00000       0.00000       0.00000       0.00000       0.00000       0.00000  
       6         6         1      2001    recall           pt00022      10.95164       0.00010       0.04381       0.02190       0.02628       0.02190       0.00000       0.10514       0.00000       0.10952       0.00000       0.00000       0.00000       0.00000       0.00000       0.00000       0.00000       0.00000  
       7         7         1      2001    recall           pt00022      10.95164       0.00010       0.04381       0.02190       0.02628       0.02190       0.00000       0.10514       0.00000       0.10952       0.00000       0.00000       0.00000       0.00000       0.00000       0.00000       0.00000       0.00000  
       8         8         1      2001    recall           pt00022      10.95164       0.00010       0.04381       0.02190       0.02628       0.02190       0.00000       0.10514       0.00000       0.10952       0.00000       0.00000       0.00000       0.00000       0.00000       0.00000       0.00000       0.00000  
       9         9         1      2001    recall           pt00022      10.95164       0.00010       0.04381       0.02190       0.02628       0.02190       0.00000       0.10514       0.00000       0.10952       0.00000       0.00000       0.00000       0.00000       0.00000       0.00000       0.00000       0.00000  
      10        10         1      2001    recall           pt00022      10.95164       0.00010       0.04381       0.02190       0.02628       0.02190       0.00000       0.10514       0.00000       0.10952       0.00000       0.00000       0.00000       0.00000       0.00000       0.00000       0.00000       0.00000  
      11        11         1      2001    recall           pt00022      10.95164       0.00010       0.04381       0.02190       0.02628       0.02190       0.00000       0.10514       0.00000       0.10952       0.00000       0.00000       0.00000       0.00000       0.00000       0.00000       0.00000       0.00000  
      12        12         1      2001    recall           pt00022      10.95164       0.00010       0.04381       0.02190       0.02628       0.02190       0.00000       0.10514       0.00000       0.10952       0.00000       0.00000       0.00000       0.00000       0.00000       0.00000       0.00000       0.00000  
       1         1         1      2002    recall           pt00022      10.95164       0.00015       0.05257       0.02628       0.03154       0.02628       0.00000       0.12616       0.00000       0.13142       0.00000       0.00000       0.00000       0.00000       0.00000       0.00000       0.00000       0.00000  
       2         2         1      2002    recall           pt00022      10.95164       0.00015       0.05257       0.02628       0.03154       0.02628       0.00000       0.12616       0.00000       0.13142       0.00000       0.00000       0.00000       0.00000       0.00000       0.00000       0.00000       0.00000  
       3         3         1      2002    recall           pt00022      10.95164       0.00015       0.05257       0.02628       0.03154       0.02628       0.00000       0.12616       0.00000       0.13142       0.00000       0.00000       0.00000       0.00000       0.00000       0.00000       0.00000       0.00000  
       4         4         1      2002    recall           pt00022      10.95164       0.00015       0.05257       0.02628       0.03154       0.02628       0.00000       0.12616       0.00000       0.13142       0.00000       0.00000       0.00000       0.00000       0.00000       0.00000       0.00000       0.00000  
       5         5         1      2002    recall           pt00022      10.95164       0.00015       0.05257       0.02628       0.03154       0.02628       0.00000       0.12616       0.00000       0.13142       0.00000       0.00000       0.00000       0.00000       0.00000       0.00000       0.00000       0.00000  
       6         6         1      2002    recall           pt00022      10.95164       0.00015       0.05257       0.02628       0.03154       0.02628       0.00000       0.12616       0.00000       0.13142       0.00000       0.00000       0.00000       0.00000       0.00000       0.00000       0.00000       0.00000  
       7         7         1      2002    recall           pt00022      10.95164       0.00015       0.05257       0.02628       0.03154       0.02628       0.00000       0.12616       0.00000       0.13142       0.00000       0.00000       0.00000       0.00000       0.00000       0.00000       0.00000       0.00000  
       8         8         1      2002    recall           pt00022      10.95164       0.00015       0.05257       0.02628       0.03154       0.02628       0.00000       0.12616       0.00000       0.13142       0.00000       0.00000       0.00000       0.00000       0.00000       0.00000       0.00000       0.00000  
       9         9         1      2002    recall           pt00022      10.95164       0.00015       0.05257       0.02628       0.03154       0.02628       0.00000       0.12616       0.00000       0.13142       0.00000       0.00000       0.00000       0.00000       0.00000       0.00000       0.00000       0.00000  
      10        10         1      2002    recall           pt00022      10.95164       0.00015       0.05257       0.02628       0.03154       0.02628       0.00000       0.12616       0.00000       0.13142       0.00000       0.00000       0.00000       0.00000       0.00000       0.00000       0.00000       0.00000  
      11        11         1      2002    recall           pt00022      10.95164       0.00015       0.05257       0.02628       0.03154       0.02628       0.00000       0.12616       0.00000       0.13142       0.00000       0.00000       0.00000       0.00000       0.00000       0.00000       0.00000       0.00000  
      12        12         1      2002    recall           pt00022      10.95164       0.00015       0.05257       0.02628       0.03154       0.02628       0.00000       0.12616       0.00000       0.13142       0.00000       0.00000       0.00000       0.00000       0.00000       0.00000       0.00000       0.00000  
       1         1         1      2003    recall           pt00022      10.95164       0.00016       0.07885       0.03943       0.04731       0.03943       0.00000       0.18924       0.00000       0.19713       0.00000       0.00000       0.00000       0.00000       0.00000       0.00000       0.00000       0.00000  
       2         2         1      2003    recall           pt00022      10.95164       0.00016       0.07885       0.03943       0.04731       0.03943       0.00000       0.18924       0.00000       0.19713       0.00000       0.00000       0.00000       0.00000       0.00000       0.00000       0.00000       0.00000  
       3         3         1      2003    recall           pt00022      10.95164       0.00016       0.07885       0.03943       0.04731       0.03943       0.00000       0.18924       0.00000       0.19713       0.00000       0.00000       0.00000       0.00000       0.00000       0.00000       0.00000       0.00000  
       4         4         1      2003    recall           pt00022      10.95164       0.00016       0.07885       0.03943       0.04731       0.03943       0.00000       0.18924       0.00000       0.19713       0.00000       0.00000       0.00000       0.00000       0.00000       0.00000       0.00000       0.00000  
       5         5         1      2003    recall           pt00022      10.95164       0.00016       0.07885       0.03943       0.04731       0.03943       0.00000       0.18924       0.00000       0.19713       0.00000       0.00000       0.00000       0.00000       0.00000       0.00000       0.00000       0.00000  
       6         6         1      2003    recall           pt00022      10.95164       0.00016       0.07885       0.03943       0.04731       0.03943       0.00000       0.18924       0.00000       0.19713       0.00000       0.00000       0.00000       0.00000       0.00000       0.00000       0.00000       0.00000  
       7         7         1      2003    recall           pt00022      10.95164       0.00016       0.07885       0.03943       0.04731       0.03943       0.00000       0.18924       0.00000       0.19713       0.00000       0.00000       0.00000       0.00000       0.00000       0.00000       0.00000       0.00000  
       8         8         1      2003    recall           pt00022      10.95164       0.00016       0.07885       0.03943       0.04731       0.03943       0.00000       0.18924       0.00000       0.19713       0.00000       0.00000       0.00000       0.00000       0.00000       0.00000       0.00000       0.00000  
       9         9         1      2003    recall           pt00022      10.95164       0.00016       0.07885       0.03943       0.04731       0.03943       0.00000       0.18924       0.00000       0.19713       0.00000       0.00000       0.00000       0.00000       0.00000       0.00000       0.00000       0.00000  
      10        10         1      2003    recall           pt00022      10.95164       0.00016       0.07885       0.03943       0.04731       0.03943       0.00000       0.18924       0.00000       0.19713       0.00000       0.00000       0.00000       0.00000       0.00000       0.00000       0.00000       0.00000  
      11        11         1      2003    recall           pt00022      10.95164       0.00016       0.07885       0.03943       0.04731       0.03943       0.00000       0.18924       0.00000       0.19713       0.00000       0.00000       0.00000       0.00000       0.00000       0.00000       0.00000       0.00000  
      12        12         1      2003    recall           pt00022      10.95164       0.00016       0.07885       0.03943       0.04731       0.03943       0.00000       0.18924       0.00000       0.19713       0.00000       0.00000       0.00000       0.00000       0.00000       0.00000       0.00000       0.00000  
       1         1         1      2004    recall           pt00022      38.33073       0.00046       0.59150       0.11896       0.00531       0.03819       0.00000       0.19330       0.02552       0.38878       0.00000       0.00000       0.00000       0.00000       0.00000       0.00000       0.00000       0.00000  
       2         2         1      2004    recall           pt00022      38.33073       0.00046       0.59150       0.11896       0.00531       0.03819       0.00000       0.19330       0.02552       0.38878       0.00000       0.00000       0.00000       0.00000       0.00000       0.00000       0.00000       0.00000  
       3         3         1      2004    recall           pt00022      38.33073       0.00046       0.59150       0.11896       0.00531       0.03819       0.00000       0.19330       0.02552       0.38878       0.00000       0.00000       0.00000       0.00000       0.00000       0.00000       0.00000       0.00000  
       4         4         1      2004    recall           pt00022      38.33073       0.00046       0.59150       0.11896       0.00531       0.03819       0.00000       0.19330       0.02552       0.38878       0.00000       0.00000       0.00000       0.00000       0.00000       0.00000       0.00000       0.00000  
       5         5         1      2004    recall           pt00022      38.33073       0.00046       0.59150       0.11896       0.00531       0.03819       0.00000       0.19330       0.02552       0.38878       0.00000       0.00000       0.00000       0.00000       0.00000       0.00000       0.00000       0.00000  
       6         6         1      2004    recall           pt00022      38.33073       0.00046       0.59150       0.11896       0.00531       0.03819       0.00000       0.19330       0.02552       0.38878       0.00000       0.00000       0.00000       0.00000       0.00000       0.00000       0.00000       0.00000  
       7         7         1      2004    recall           pt00022      38.33073       0.00046       0.59150       0.11896       0.00531       0.03819       0.00000       0.19330       0.02552       0.38878       0.00000       0.00000       0.00000       0.00000       0.00000       0.00000       0.00000       0.00000  
       8         8         1      2004    recall           pt00022      38.33073       0.00046       0.59150       0.11896       0.00531       0.03819       0.00000       0.19330       0.02552       0.38878       0.00000       0.00000       0.00000       0.00000       0.00000       0.00000       0.00000       0.00000  
       9         9         1      2004    recall           pt00022      38.33073       0.00046       0.59150       0.11896       0.00531       0.03819       0.00000       0.19330       0.02552       0.38878       0.00000       0.00000       0.00000       0.00000       0.00000       0.00000       0.00000       0.00000  
      10        10         1      2004    recall           pt00022      38.33073       0.00046       0.59150       0.11896       0.00531       0.03819       0.00000       0.19330       0.02552       0.38878       0.00000       0.00000       0.00000       0.00000       0.00000       0.00000       0.00000       0.00000  
      11        11         1      2004    recall           pt00022      38.33073       0.00046       0.59150       0.11896       0.00531       0.03819       0.00000       0.19330       0.02552       0.38878       0.00000       0.00000       0.00000       0.00000       0.00000       0.00000       0.00000       0.00000  
      12        12         1      2004    recall           pt00022      38.33073       0.00046       0.59150       0.11896       0.00531       0.03819       0.00000       0.19330       0.02552       0.38878       0.00000       0.00000       0.00000       0.00000       0.00000       0.00000       0.00000       0.00000  
       1         1         1      2005    recall           pt00022       5.47582       0.00010       0.06549       0.01424       0.00767       0.02738       0.00000       0.09309       0.00022       0.10404       0.00000       0.00000       0.00000       0.00000       0.00000       0.00000       0.00000       0.00000  
       2         2         1      2005    recall           pt00022       5.47582       0.00010       0.06549       0.01424       0.00767       0.02738       0.00000       0.09309       0.00022       0.10404       0.00000       0.00000       0.00000       0.00000       0.00000       0.00000       0.00000       0.00000  
       3         3         1      2005    recall           pt00022       5.47582       0.00010       0.06549       0.01424       0.00767       0.02738       0.00000       0.09309       0.00022       0.10404       0.00000       0.00000       0.00000       0.00000       0.00000       0.00000       0.00000       0.00000  
       4         4         1      2005    recall           pt00022       5.47582       0.00010       0.06549       0.01424       0.00767       0.02738       0.00000       0.09309       0.00022       0.10404       0.00000       0.00000       0.00000       0.00000       0.00000       0.00000       0.00000       0.00000  
       5         5         1      2005    recall           pt00022       5.47582       0.00010       0.06549       0.01424       0.00767       0.02738       0.00000       0.09309       0.00022       0.10404       0.00000       0.00000       0.00000       0.00000       0.00000       0.00000       0.00000       0.00000  
       6         6         1      2005    recall           pt00022       5.47582       0.00010       0.06549       0.01424       0.00767       0.02738       0.00000       0.09309       0.00022       0.10404       0.00000       0.00000       0.00000       0.00000       0.00000       0.00000       0.00000       0.00000  
       7         7         1      2005    recall           pt00022       5.47582       0.00010       0.06549       0.01424       0.00767       0.02738       0.00000       0.09309       0.00022       0.10404       0.00000       0.00000       0.00000       0.00000       0.00000       0.00000       0.00000       0.00000  
       8         8         1      2005    recall           pt00022       5.47582       0.00010       0.06549       0.01424       0.00767       0.02738       0.00000       0.09309       0.00022       0.10404       0.00000       0.00000       0.00000       0.00000       0.00000       0.00000       0.00000       0.00000  
       9         9         1      2005    recall           pt00022       5.47582       0.00010       0.06549       0.01424       0.00767       0.02738       0.00000       0.09309       0.00022       0.10404       0.00000       0.00000       0.00000       0.00000       0.00000       0.00000       0.00000       0.00000  
      10        10         1      2005    recall           pt00022       5.47582       0.00010       0.06549       0.01424       0.00767       0.02738       0.00000       0.09309       0.00022       0.10404       0.00000       0.00000       0.00000       0.00000       0.00000       0.00000       0.00000       0.00000  
      11        11         1      2005    recall           pt00022       5.47582       0.00010       0.06549       0.01424       0.00767       0.02738       0.00000       0.09309       0.00022       0.10404       0.00000       0.00000       0.00000       0.00000       0.00000       0.00000       0.00000       0.00000  
      12        12         1      2005    recall           pt00022       5.47582       0.00010       0.06549       0.01424       0.00767       0.02738       0.00000       0.09309       0.00022       0.10404       0.00000       0.00000       0.00000       0.00000       0.00000       0.00000       0.00000       0.00000  
       1         1         1      2006    recall           pt00022      27.37909       0.00061       0.11784       0.12397       0.01248       0.06659       0.00000       0.79290       0.02519       0.47640       0.00000       0.00000       0.00000       0.00000       0.00000       0.00000       0.00000       0.00000  
       2         2         1      2006    recall           pt00022      27.37909       0.00061       0.11784       0.12397       0.01248       0.06659       0.00000       0.79290       0.02519       0.47640       0.00000       0.00000       0.00000       0.00000       0.00000       0.00000       0.00000       0.00000  
       3         3         1      2006    recall           pt00022      27.37909       0.00061       0.11784       0.12397       0.01248       0.06659       0.00000       0.79290       0.02519       0.47640       0.00000       0.00000       0.00000       0.00000       0.00000       0.00000       0.00000       0.00000  
       4         4         1      2006    recall           pt00022      27.37909       0.00061       0.11784       0.12397       0.01248       0.06659       0.00000       0.79290       0.02519       0.47640       0.00000       0.00000       0.00000       0.00000       0.00000       0.00000       0.00000       0.00000  
       5         5         1      2006    recall           pt00022      27.37909       0.00061       0.11784       0.12397       0.01248       0.06659       0.00000       0.79290       0.02519       0.47640       0.00000       0.00000       0.00000       0.00000       0.00000       0.00000       0.00000       0.00000  
       6         6         1      2006    recall           pt00022      27.37909       0.00061       0.11784       0.12397       0.01248       0.06659       0.00000       0.79290       0.02519       0.47640       0.00000       0.00000       0.00000       0.00000       0.00000       0.00000       0.00000       0.00000  
       7         7         1      2006    recall           pt00022      27.37909       0.00061       0.11784       0.12397       0.01248       0.06659       0.00000       0.79290       0.02519       0.47640       0.00000       0.00000       0.00000       0.00000       0.00000       0.00000       0.00000       0.00000  
       8         8         1      2006    recall           pt00022      27.37909       0.00061       0.11784       0.12397       0.01248       0.06659       0.00000       0.79290       0.02519       0.47640       0.00000       0.00000       0.00000       0.00000       0.00000       0.00000       0.00000       0.00000  
       9         9         1      2006    recall           pt00022      27.37909       0.00061       0.11784       0.12397       0.01248       0.06659       0.00000       0.79290       0.02519       0.47640       0.00000       0.00000       0.00000       0.00000       0.00000       0.00000       0.00000       0.00000  
      10        10         1      2006    recall           pt00022      27.37909       0.00061       0.11784       0.12397       0.01248       0.06659       0.00000       0.79290       0.02519       0.47640       0.00000       0.00000       0.00000       0.00000       0.00000       0.00000       0.00000       0.00000  
      11        11         1      2006    recall           pt00022      27.37909       0.00061       0.11784       0.12397       0.01248       0.06659       0.00000       0.79290       0.02519       0.47640       0.00000       0.00000       0.00000       0.00000       0.00000       0.00000       0.00000       0.00000  
      12        12         1      2006    recall           pt00022      27.37909       0.00061       0.11784       0.12397       0.01248       0.06659       0.00000       0.79290       0.02519       0.47640       0.00000       0.00000       0.00000       0.00000       0.00000       0.00000       0.00000       0.00000  
       1         1         1      2007    recall           pt00022      13.68955       0.00013       0.22623       0.05613       0.00372       0.02163       0.00000       0.13273       0.00172       0.19439       0.00000       0.00000       0.00000       0.00000       0.00000       0.00000       0.00000       0.00000  
       2         2         1      2007    recall           pt00022      13.68955       0.00013       0.22623       0.05613       0.00372       0.02163       0.00000       0.13273       0.00172       0.19439       0.00000       0.00000       0.00000       0.00000       0.00000       0.00000       0.00000       0.00000  
       3         3         1      2007    recall           pt00022      13.68955       0.00013       0.22623       0.05613       0.00372       0.02163       0.00000       0.13273       0.00172       0.19439       0.00000       0.00000       0.00000       0.00000       0.00000       0.00000       0.00000       0.00000  
       4         4         1      2007    recall           pt00022      13.68955       0.00013       0.22623       0.05613       0.00372       0.02163       0.00000       0.13273       0.00172       0.19439       0.00000       0.00000       0.00000       0.00000       0.00000       0.00000       0.00000       0.00000  
       5         5         1      2007    recall           pt00022      13.68955       0.00013       0.22623       0.05613       0.00372       0.02163       0.00000       0.13273       0.00172       0.19439       0.00000       0.00000       0.00000       0.00000       0.00000       0.00000       0.00000       0.00000  
       6         6         1      2007    recall           pt00022      13.68955       0.00013       0.22623       0.05613       0.00372       0.02163       0.00000       0.13273       0.00172       0.19439       0.00000       0.00000       0.00000       0.00000       0.00000       0.00000       0.00000       0.00000  
       7         7         1      2007    recall           pt00022      13.68955       0.00013       0.22623       0.05613       0.00372       0.02163       0.00000       0.13273       0.00172       0.19439       0.00000       0.00000       0.00000       0.00000       0.00000       0.00000       0.00000       0.00000  
       8         8         1      2007    recall           pt00022      13.68955       0.00013       0.22623       0.05613       0.00372       0.02163       0.00000       0.13273       0.00172       0.19439       0.00000       0.00000       0.00000       0.00000       0.00000       0.00000       0.00000       0.00000  
       9         9         1      2007    recall           pt00022      13.68955       0.00013       0.22623       0.05613       0.00372       0.02163       0.00000       0.13273       0.00172       0.19439       0.00000       0.00000       0.00000       0.00000       0.00000       0.00000       0.00000       0.00000  
      10        10         1      2007    recall           pt00022      13.68955       0.00013       0.22623       0.05613       0.00372       0.02163       0.00000       0.13273       0.00172       0.19439       0.00000       0.00000       0.00000       0.00000       0.00000       0.00000       0.00000       0.00000  
      11        11         1      2007    recall           pt00022      13.68955       0.00013       0.22623       0.05613       0.00372       0.02163       0.00000       0.13273       0.00172       0.19439       0.00000       0.00000       0.00000       0.00000       0.00000       0.00000       0.00000       0.00000  
      12        12         1      2007    recall           pt00022      13.68955       0.00013       0.22623       0.05613       0.00372       0.02163       0.00000       0.13273       0.00172       0.19439       0.00000       0.00000       0.00000       0.00000       0.00000       0.00000       0.00000       0.00000  
       1         1         1      2008    recall           pt00022      24.64118       0.00047       0.59889       0.14456       0.01944       0.07776       0.00000       0.50487       0.00564       0.55580       0.00000       0.00000       0.00000       0.00000       0.00000       0.00000       0.00000       0.00000  
       2         2         1      2008    recall           pt00022      24.64118       0.00047       0.59889       0.14456       0.01944       0.07776       0.00000       0.50487       0.00564       0.55580       0.00000       0.00000       0.00000       0.00000       0.00000       0.00000       0.00000       0.00000  
       3         3         1      2008    recall           pt00022      24.64118       0.00047       0.59889       0.14456       0.01944       0.07776       0.00000       0.50487       0.00564       0.55580       0.00000       0.00000       0.00000       0.00000       0.00000       0.00000       0.00000       0.00000  
       4         4         1      2008    recall           pt00022      24.64118       0.00047       0.59889       0.14456       0.01944       0.07776       0.00000       0.50487       0.00564       0.55580       0.00000       0.00000       0.00000       0.00000       0.00000       0.00000       0.00000       0.00000  
       5         5         1      2008    recall           pt00022      24.64118       0.00047       0.59889       0.14456       0.01944       0.07776       0.00000       0.50487       0.00564       0.55580       0.00000       0.00000       0.00000       0.00000       0.00000       0.00000       0.00000       0.00000  
       6         6         1      2008    recall           pt00022      24.64118       0.00047       0.59889       0.14456       0.01944       0.07776       0.00000       0.50487       0.00564       0.55580       0.00000       0.00000       0.00000       0.00000       0.00000       0.00000       0.00000       0.00000  
       7         7         1      2008    recall           pt00022      24.64118       0.00047       0.59889       0.14456       0.01944       0.07776       0.00000       0.50487       0.00564       0.55580       0.00000       0.00000       0.00000       0.00000       0.00000       0.00000       0.00000       0.00000  
       8         8         1      2008    recall           pt00022      24.64118       0.00047       0.59889       0.14456       0.01944       0.07776       0.00000       0.50487       0.00564       0.55580       0.00000       0.00000       0.00000       0.00000       0.00000       0.00000       0.00000       0.00000  
       9         9         1      2008    recall           pt00022      24.64118       0.00047       0.59889       0.14456       0.01944       0.07776       0.00000       0.50487       0.00564       0.55580       0.00000       0.00000       0.00000       0.00000       0.00000       0.00000       0.00000       0.00000  
      10        10         1      2008    recall           pt00022      24.64118       0.00047       0.59889       0.14456       0.01944       0.07776       0.00000       0.50487       0.00564       0.55580       0.00000       0.00000       0.00000       0.00000       0.00000       0.00000       0.00000       0.00000  
      11        11         1      2008    recall           pt00022      24.64118       0.00047       0.59889       0.14456       0.01944       0.07776       0.00000       0.50487       0.00564       0.55580       0.00000       0.00000       0.00000       0.00000       0.00000       0.00000       0.00000       0.00000  
      12        12         1      2008    recall           pt00022      24.64118       0.00047       0.59889       0.14456       0.01944       0.07776       0.00000       0.50487       0.00564       0.55580       0.00000       0.00000       0.00000       0.00000       0.00000       0.00000       0.00000       0.00000  
       1         1         1      2009    recall           pt00022      30.11700       0.00047       0.38610       0.13164       0.03080       0.04841       0.00000       0.47092       0.00485       0.45011       0.00000       0.00000       0.00000       0.00000       0.00000       0.00000       0.00000       0.00000  
       2         2         1      2009    recall           pt00022      30.11700       0.00047       0.38610       0.13164       0.03080       0.04841       0.00000       0.47092       0.00485       0.45011       0.00000       0.00000       0.00000       0.00000       0.00000       0.00000       0.00000       0.00000  
       3         3         1      2009    recall           pt00022      30.11700       0.00047       0.38610       0.13164       0.03080       0.04841       0.00000       0.47092       0.00485       0.45011       0.00000       0.00000       0.00000       0.00000       0.00000       0.00000       0.00000       0.00000  
       4         4         1      2009    recall           pt00022      30.11700       0.00047       0.38610       0.13164       0.03080       0.04841       0.00000       0.47092       0.00485       0.45011       0.00000       0.00000       0.00000       0.00000       0.00000       0.00000       0.00000       0.00000  
       5         5         1      2009    recall           pt00022      30.11700       0.00047       0.38610       0.13164       0.03080       0.04841       0.00000       0.47092       0.00485       0.45011       0.00000       0.00000       0.00000       0.00000       0.00000       0.00000       0.00000       0.00000  
       6         6         1      2009    recall           pt00022      30.11700       0.00047       0.38610       0.13164       0.03080       0.04841       0.00000       0.47092       0.00485       0.45011       0.00000       0.00000       0.00000       0.00000       0.00000       0.00000       0.00000       0.00000  
       7         7         1      2009    recall           pt00022      30.11700       0.00047       0.38610       0.13164       0.03080       0.04841       0.00000       0.47092       0.00485       0.45011       0.00000       0.00000       0.00000       0.00000       0.00000       0.00000       0.00000       0.00000  
       8         8         1      2009    recall           pt00022      30.11700       0.00047       0.38610       0.13164       0.03080       0.04841       0.00000       0.47092       0.00485       0.45011       0.00000       0.00000       0.00000       0.00000       0.00000       0.00000       0.00000       0.00000  
       9         9         1      2009    recall           pt00022      30.11700       0.00047       0.38610       0.13164       0.03080       0.04841       0.00000       0.47092       0.00485       0.45011       0.00000       0.00000       0.00000       0.00000       0.00000       0.00000       0.00000       0.00000  
      10        10         1      2009    recall           pt00022      30.11700       0.00047       0.38610       0.13164       0.03080       0.04841       0.00000       0.47092       0.00485       0.45011       0.00000       0.00000       0.00000       0.00000       0.00000       0.00000       0.00000       0.00000  
      11        11         1      2009    recall           pt00022      30.11700       0.00047       0.38610       0.13164       0.03080       0.04841       0.00000       0.47092       0.00485       0.45011       0.00000       0.00000       0.00000       0.00000       0.00000       0.00000       0.00000       0.00000  
      12        12         1      2009    recall           pt00022      30.11700       0.00047       0.38610       0.13164       0.03080       0.04841       0.00000       0.47092       0.00485       0.45011       0.00000       0.00000       0.00000       0.00000       0.00000       0.00000       0.00000       0.00000  
       1         1         1      2010    recall           pt00022       8.21373       0.00004       0.03836       0.01593       0.01339       0.01133       0.00000       0.05585       0.00148       0.06817       0.00000       0.00000       0.00000       0.00000       0.00000       0.00000       0.00000       0.00000  
       2         2         1      2010    recall           pt00022       8.21373       0.00004       0.03836       0.01593       0.01339       0.01133       0.00000       0.05585       0.00148       0.06817       0.00000       0.00000       0.00000       0.00000       0.00000       0.00000       0.00000       0.00000  
       3         3         1      2010    recall           pt00022       8.21373       0.00004       0.03836       0.01593       0.01339       0.01133       0.00000       0.05585       0.00148       0.06817       0.00000       0.00000       0.00000       0.00000       0.00000       0.00000       0.00000       0.00000  
       4         4         1      2010    recall           pt00022       8.21373       0.00004       0.03836       0.01593       0.01339       0.01133       0.00000       0.05585       0.00148       0.06817       0.00000       0.00000       0.00000       0.00000       0.00000       0.00000       0.00000       0.00000  
       5         5         1      2010    recall           pt00022       8.21373       0.00004       0.03836       0.01593       0.01339       0.01133       0.00000       0.05585       0.00148       0.06817       0.00000       0.00000       0.00000       0.00000       0.00000       0.00000       0.00000       0.00000  
       6         6         1      2010    recall           pt00022       8.21373       0.00004       0.03836       0.01593       0.01339       0.01133       0.00000       0.05585       0.00148       0.06817       0.00000       0.00000       0.00000       0.00000       0.00000       0.00000       0.00000       0.00000  
       7         7         1      2010    recall           pt00022       8.21373       0.00004       0.03836       0.01593       0.01339       0.01133       0.00000       0.05585       0.00148       0.06817       0.00000       0.00000       0.00000       0.00000       0.00000       0.00000       0.00000       0.00000  
       8         8         1      2010    recall           pt00022       8.21373       0.00004       0.03836       0.01593       0.01339       0.01133       0.00000       0.05585       0.00148       0.06817       0.00000       0.00000       0.00000       0.00000       0.00000       0.00000       0.00000       0.00000  
       9         9         1      2010    recall           pt00022       8.21373       0.00004       0.03836       0.01593       0.01339       0.01133       0.00000       0.05585       0.00148       0.06817       0.00000       0.00000       0.00000       0.00000       0.00000       0.00000       0.00000       0.00000  
      10        10         1      2010    recall           pt00022       8.21373       0.00004       0.03836       0.01593       0.01339       0.01133       0.00000       0.05585       0.00148       0.06817       0.00000       0.00000       0.00000       0.00000       0.00000       0.00000       0.00000       0.00000  
      11        11         1      2010    recall           pt00022       8.21373       0.00004       0.03836       0.01593       0.01339       0.01133       0.00000       0.05585       0.00148       0.06817       0.00000       0.00000       0.00000       0.00000       0.00000       0.00000       0.00000       0.00000  
      12        12         1      2010    recall           pt00022       8.21373       0.00004       0.03836       0.01593       0.01339       0.01133       0.00000       0.05585       0.00148       0.06817       0.00000       0.00000       0.00000       0.00000       0.00000       0.00000       0.00000       0.00000  
       1         1         1      2011    recall           pt00022       8.21373       0.00006       0.00000       0.01133       0.02382       0.01035       0.00000       0.07392       0.00378       0.05421       0.00000       0.00000       0.00000       0.00000       0.00000       0.00000       0.00000       0.00000  
       2         2         1      2011    recall           pt00022       8.21373       0.00006       0.00000       0.01133       0.02382       0.01035       0.00000       0.07392       0.00378       0.05421       0.00000       0.00000       0.00000       0.00000       0.00000       0.00000       0.00000       0.00000  
       3         3         1      2011    recall           pt00022       8.21373       0.00006       0.00000       0.01133       0.02382       0.01035       0.00000       0.07392       0.00378       0.05421       0.00000       0.00000       0.00000       0.00000       0.00000       0.00000       0.00000       0.00000  
       4         4         1      2011    recall           pt00022       8.21373       0.00006       0.00000       0.01133       0.02382       0.01035       0.00000       0.07392       0.00378       0.05421       0.00000       0.00000       0.00000       0.00000       0.00000       0.00000       0.00000       0.00000  
       5         5         1      2011    recall           pt00022       8.21373       0.00006       0.00000       0.01133       0.02382       0.01035       0.00000       0.07392       0.00378       0.05421       0.00000       0.00000       0.00000       0.00000       0.00000       0.00000       0.00000       0.00000  
       6         6         1      2011    recall           pt00022       8.21373       0.00006       0.00000       0.01133       0.02382       0.01035       0.00000       0.07392       0.00378       0.05421       0.00000       0.00000       0.00000       0.00000       0.00000       0.00000       0.00000       0.00000  
       7         7         1      2011    recall           pt00022       8.21373       0.00006       0.00000       0.01133       0.02382       0.01035       0.00000       0.07392       0.00378       0.05421       0.00000       0.00000       0.00000       0.00000       0.00000       0.00000       0.00000       0.00000  
       8         8         1      2011    recall           pt00022       8.21373       0.00006       0.00000       0.01133       0.02382       0.01035       0.00000       0.07392       0.00378       0.05421       0.00000       0.00000       0.00000       0.00000       0.00000       0.00000       0.00000       0.00000  
       9         9         1      2011    recall           pt00022       8.21373       0.00006       0.00000       0.01133       0.02382       0.01035       0.00000       0.07392       0.00378       0.05421       0.00000       0.00000       0.00000       0.00000       0.00000       0.00000       0.00000       0.00000  
      10        10         1      2011    recall           pt00022       8.21373       0.00006       0.00000       0.01133       0.02382       0.01035       0.00000       0.07392       0.00378       0.05421       0.00000       0.00000       0.00000       0.00000       0.00000       0.00000       0.00000       0.00000  
      11        11         1      2011    recall           pt00022       8.21373       0.00006       0.00000       0.01133       0.02382       0.01035       0.00000       0.07392       0.00378       0.05421       0.00000       0.00000       0.00000       0.00000       0.00000       0.00000       0.00000       0.00000  
      12        12         1      2011    recall           pt00022       8.21373       0.00006       0.00000       0.01133       0.02382       0.01035       0.00000       0.07392       0.00378       0.05421       0.00000       0.00000       0.00000       0.00000       0.00000       0.00000       0.00000       0.00000  
       1         1         1      2012    recall           pt00022       8.21373       0.00007       0.05442       0.02702       0.00419       0.01240       0.00000       0.09856       0.00053       0.09856       0.00000       0.00000       0.00000       0.00000       0.00000       0.00000       0.00000       0.00000  
       2         2         1      2012    recall           pt00022       8.21373       0.00007       0.05442       0.02702       0.00419       0.01240       0.00000       0.09856       0.00053       0.09856       0.00000       0.00000       0.00000       0.00000       0.00000       0.00000       0.00000       0.00000  
       3         3         1      2012    recall           pt00022       8.21373       0.00007       0.05442       0.02702       0.00419       0.01240       0.00000       0.09856       0.00053       0.09856       0.00000       0.00000       0.00000       0.00000       0.00000       0.00000       0.00000       0.00000  
       4         4         1      2012    recall           pt00022       8.21373       0.00007       0.05442       0.02702       0.00419       0.01240       0.00000       0.09856       0.00053       0.09856       0.00000       0.00000       0.00000       0.00000       0.00000       0.00000       0.00000       0.00000  
       5         5         1      2012    recall           pt00022       8.21373       0.00007       0.05442       0.02702       0.00419       0.01240       0.00000       0.09856       0.00053       0.09856       0.00000       0.00000       0.00000       0.00000       0.00000       0.00000       0.00000       0.00000  
       6         6         1      2012    recall           pt00022       8.21373       0.00007       0.05442       0.02702       0.00419       0.01240       0.00000       0.09856       0.00053       0.09856       0.00000       0.00000       0.00000       0.00000       0.00000       0.00000       0.00000       0.00000  
       7         7         1      2012    recall           pt00022       8.21373       0.00007       0.05442       0.02702       0.00419       0.01240       0.00000       0.09856       0.00053       0.09856       0.00000       0.00000       0.00000       0.00000       0.00000       0.00000       0.00000       0.00000  
       8         8         1      2012    recall           pt00022       8.21373       0.00007       0.05442       0.02702       0.00419       0.01240       0.00000       0.09856       0.00053       0.09856       0.00000       0.00000       0.00000       0.00000       0.00000       0.00000       0.00000       0.00000  
       9         9         1      2012    recall           pt00022       8.21373       0.00007       0.05442       0.02702       0.00419       0.01240       0.00000       0.09856       0.00053       0.09856       0.00000       0.00000       0.00000       0.00000       0.00000       0.00000       0.00000       0.00000  
      10        10         1      2012    recall           pt00022       8.21373       0.00007       0.05442       0.02702       0.00419       0.01240       0.00000       0.09856       0.00053       0.09856       0.00000       0.00000       0.00000       0.00000       0.00000       0.00000       0.00000       0.00000  
      11        11         1      2012    recall           pt00022       8.21373       0.00007       0.05442       0.02702       0.00419       0.01240       0.00000       0.09856       0.00053       0.09856       0.00000       0.00000       0.00000       0.00000       0.00000       0.00000       0.00000       0.00000  
      12        12         1      2012    recall           pt00022       8.21373       0.00007       0.05442       0.02702       0.00419       0.01240       0.00000       0.09856       0.00053       0.09856       0.00000       0.00000       0.00000       0.00000       0.00000       0.00000       0.00000       0.00000  
       1         1         1      2013    recall           pt00022       5.47582       0.00011       0.00000       0.00000       0.00389       0.00586       0.00000       0.04107       0.00077       0.05257       0.00000       0.00000       0.00000       0.00000       0.00000       0.00000       0.00000       0.00000  
       2         2         1      2013    recall           pt00022       5.47582       0.00011       0.00000       0.00000       0.00389       0.00586       0.00000       0.04107       0.00077       0.05257       0.00000       0.00000       0.00000       0.00000       0.00000       0.00000       0.00000       0.00000  
       3         3         1      2013    recall           pt00022       5.47582       0.00011       0.00000       0.00000       0.00389       0.00586       0.00000       0.04107       0.00077       0.05257       0.00000       0.00000       0.00000       0.00000       0.00000       0.00000       0.00000       0.00000  
       4         4         1      2013    recall           pt00022       5.47582       0.00011       0.00000       0.00000       0.00389       0.00586       0.00000       0.04107       0.00077       0.05257       0.00000       0.00000       0.00000       0.00000       0.00000       0.00000       0.00000       0.00000  
       5         5         1      2013    recall           pt00022       5.47582       0.00011       0.00000       0.00000       0.00389       0.00586       0.00000       0.04107       0.00077       0.05257       0.00000       0.00000       0.00000       0.00000       0.00000       0.00000       0.00000       0.00000  
       6         6         1      2013    recall           pt00022       5.47582       0.00011       0.00000       0.00000       0.00389       0.00586       0.00000       0.04107       0.00077       0.05257       0.00000       0.00000       0.00000       0.00000       0.00000       0.00000       0.00000       0.00000  
       7         7         1      2013    recall           pt00022       5.47582       0.00011       0.00000       0.00000       0.00389       0.00586       0.00000       0.04107       0.00077       0.05257       0.00000       0.00000       0.00000       0.00000       0.00000       0.00000       0.00000       0.00000  
       8         8         1      2013    recall           pt00022       5.47582       0.00011       0.00000       0.00000       0.00389       0.00586       0.00000       0.04107       0.00077       0.05257       0.00000       0.00000       0.00000       0.00000       0.00000       0.00000       0.00000       0.00000  
       9         9         1      2013    recall           pt00022       5.47582       0.00011       0.00000       0.00000       0.00389       0.00586       0.00000       0.04107       0.00077       0.05257       0.00000       0.00000       0.00000       0.00000       0.00000       0.00000       0.00000       0.00000  
      10        10         1      2013    recall           pt00022       5.47582       0.00011       0.00000       0.00000       0.00389       0.00586       0.00000       0.04107       0.00077       0.05257       0.00000       0.00000       0.00000       0.00000       0.00000       0.00000       0.00000       0.00000  
      11        11         1      2013    recall           pt00022       5.47582       0.00011       0.00000       0.00000       0.00389       0.00586       0.00000       0.04107       0.00077       0.05257       0.00000       0.00000       0.00000       0.00000       0.00000       0.00000       0.00000       0.00000  
      12        12         1      2013    recall           pt00022       5.47582       0.00011       0.00000       0.00000       0.00389       0.00586       0.00000       0.04107       0.00077       0.05257       0.00000       0.00000       0.00000       0.00000       0.00000       0.00000       0.00000       0.00000  
       1         1         1      2014    recall           pt00022       5.74961       0.00007       0.00000       0.00000       0.01322       0.01115       0.00000       0.07474       0.00052       0.07143       0.00000       0.00000       0.00000       0.00000       0.00000       0.00000       0.00000       0.00000  
       2         2         1      2014    recall           pt00022       5.74961       0.00007       0.00000       0.00000       0.01322       0.01115       0.00000       0.07474       0.00052       0.07143       0.00000       0.00000       0.00000       0.00000       0.00000       0.00000       0.00000       0.00000  
       3         3         1      2014    recall           pt00022       5.74961       0.00007       0.00000       0.00000       0.01322       0.01115       0.00000       0.07474       0.00052       0.07143       0.00000       0.00000       0.00000       0.00000       0.00000       0.00000       0.00000       0.00000  
       4         4         1      2014    recall           pt00022       5.74961       0.00007       0.00000       0.00000       0.01322       0.01115       0.00000       0.07474       0.00052       0.07143       0.00000       0.00000       0.00000       0.00000       0.00000       0.00000       0.00000       0.00000  
       5         5         1      2014    recall           pt00022       5.74961       0.00007       0.00000       0.00000       0.01322       0.01115       0.00000       0.07474       0.00052       0.07143       0.00000       0.00000       0.00000       0.00000       0.00000       0.00000       0.00000       0.00000  
       6         6         1      2014    recall           pt00022       5.74961       0.00007       0.00000       0.00000       0.01322       0.01115       0.00000       0.07474       0.00052       0.07143       0.00000       0.00000       0.00000       0.00000       0.00000       0.00000       0.00000       0.00000  
       7         7         1      2014    recall           pt00022       5.74961       0.00007       0.00000       0.00000       0.01322       0.01115       0.00000       0.07474       0.00052       0.07143       0.00000       0.00000       0.00000       0.00000       0.00000       0.00000       0.00000       0.00000  
       8         8         1      2014    recall           pt00022       5.74961       0.00007       0.00000       0.00000       0.01322       0.01115       0.00000       0.07474       0.00052       0.07143       0.00000       0.00000       0.00000       0.00000       0.00000       0.00000       0.00000       0.00000  
[...]
      11        11         1      2014    recall           pt00022       5.74961       0.00007       0.00000       0.00000       0.01322       0.01115       0.00000       0.07474       0.00052       0.07143       0.00000       0.00000       0.00000       0.00000       0.00000       0.00000       0.00000       0.00000  
      12        12         1      2014    recall           pt00022       5.74961       0.00007       0.00000       0.00000       0.01322       0.01115       0.00000       0.07474       0.00052       0.07143       0.00000       0.00000       0.00000       0.00000       0.00000       0.00000       0.00000       0.00000  
       1         1         1      2015    recall           pt00022       5.20203       0.00002       0.00000       0.00000       0.01109       0.00972       0.00000       0.07586       0.00053       0.02689       0.00000       0.00000       0.00000       0.00000       0.00000       0.00000       0.00000       0.00000  
       2         2         1      2015    recall           pt00022       5.20203       0.00002       0.00000       0.00000       0.01109       0.00972       0.00000       0.07586       0.00053       0.02689       0.00000       0.00000       0.00000       0.00000       0.00000       0.00000       0.00000       0.00000  
       3         3         1      2015    recall           pt00022       5.20203       0.00002       0.00000       0.00000       0.01109       0.00972       0.00000       0.07586       0.00053       0.02689       0.00000       0.00000       0.00000       0.00000       0.00000       0.00000       0.00000       0.00000  
       4         4         1      2015    recall           pt00022       5.20203       0.00002       0.00000       0.00000       0.01109       0.00972       0.00000       0.07586       0.00053       0.02689       0.00000       0.00000       0.00000       0.00000       0.00000       0.00000       0.00000       0.00000  
       5         5         1      2015    recall           pt00022       5.20203       0.00002       0.00000       0.00000       0.01109       0.00972       0.00000       0.07586       0.00053       0.02689       0.00000       0.00000       0.00000       0.00000       0.00000       0.00000       0.00000       0.00000  
       6         6         1      2015    recall           pt00022       5.20203       0.00002       0.00000       0.00000       0.01109       0.00972       0.00000       0.07586       0.00053       0.02689       0.00000       0.00000       0.00000       0.00000       0.00000       0.00000       0.00000       0.00000  
       7         7         1      2015    recall           pt00022       5.20203       0.00002       0.00000       0.00000       0.01109       0.00972       0.00000       0.07586       0.00053       0.02689       0.00000       0.00000       0.00000       0.00000       0.00000       0.00000       0.00000       0.00000  
       8         8         1      2015    recall           pt00022       5.20203       0.00002       0.00000       0.00000       0.01109       0.00972       0.00000       0.07586       0.00053       0.02689       0.00000       0.00000       0.00000       0.00000       0.00000       0.00000       0.00000       0.00000  
       9         9         1      2015    recall           pt00022       5.20203       0.00002       0.00000       0.00000       0.01109       0.00972       0.00000       0.07586       0.00053       0.02689       0.00000       0.00000       0.00000       0.00000       0.00000       0.00000       0.00000       0.00000  
      10        10         1      2015    recall           pt00022       5.20203       0.00002       0.00000       0.00000       0.01109       0.00972       0.00000       0.07586       0.00053       0.02689       0.00000       0.00000       0.00000       0.00000       0.00000       0.00000       0.00000       0.00000  
      11        11         1      2015    recall           pt00022       5.20203       0.00002       0.00000       0.00000       0.01109       0.00972       0.00000       0.07586       0.00053       0.02689       0.00000       0.00000       0.00000       0.00000       0.00000       0.00000       0.00000       0.00000  
      12        12         1      2015    recall           pt00022       5.20203       0.00002       0.00000       0.00000       0.01109       0.00972       0.00000       0.07586       0.00053       0.02689       0.00000       0.00000       0.00000       0.00000       0.00000       0.00000       0.00000       0.00000  
       1         1         1      2016    recall           pt00022       4.10686       0.00004       0.00000       0.00000       0.00889       0.00600       0.00000       0.05887       0.00081       0.03601       0.00000       0.00000       0.00000       0.00000       0.00000       0.00000       0.00000       0.00000  
       2         2         1      2016    recall           pt00022       4.10686       0.00004       0.00000       0.00000       0.00889       0.00600       0.00000       0.05887       0.00081       0.03601       0.00000       0.00000       0.00000       0.00000       0.00000       0.00000       0.00000       0.00000  
       3         3         1      2016    recall           pt00022       4.10686       0.00004       0.00000       0.00000       0.00889       0.00600       0.00000       0.05887       0.00081       0.03601       0.00000       0.00000       0.00000       0.00000       0.00000       0.00000       0.00000       0.00000  
       4         4         1      2016    recall           pt00022       4.10686       0.00004       0.00000       0.00000       0.00889       0.00600       0.00000       0.05887       0.00081       0.03601       0.00000       0.00000       0.00000       0.00000       0.00000       0.00000       0.00000       0.00000  
       5         5         1      2016    recall           pt00022       4.10686       0.00004       0.00000       0.00000       0.00889       0.00600       0.00000       0.05887       0.00081       0.03601       0.00000       0.00000       0.00000       0.00000       0.00000       0.00000       0.00000       0.00000  
       6         6         1      2016    recall           pt00022       4.10686       0.00004       0.00000       0.00000       0.00889       0.00600       0.00000       0.05887       0.00081       0.03601       0.00000       0.00000       0.00000       0.00000       0.00000       0.00000       0.00000       0.00000  
       7         7         1      2016    recall           pt00022       4.10686       0.00004       0.00000       0.00000       0.00889       0.00600       0.00000       0.05887       0.00081       0.03601       0.00000       0.00000       0.00000       0.00000       0.00000       0.00000       0.00000       0.00000  
       8         8         1      2016    recall           pt00022       4.10686       0.00004       0.00000       0.00000       0.00889       0.00600       0.00000       0.05887       0.00081       0.03601       0.00000       0.00000       0.00000       0.00000       0.00000       0.00000       0.00000       0.00000  
       9         9         1      2016    recall           pt00022       4.10686       0.00004       0.00000       0.00000       0.00889       0.00600       0.00000       0.05887       0.00081       0.03601       0.00000       0.00000       0.00000       0.00000       0.00000       0.00000       0.00000       0.00000  
      10        10         1      2016    recall           pt00022       4.10686       0.00004       0.00000       0.00000       0.00889       0.00600       0.00000       0.05887       0.00081       0.03601       0.00000       0.00000       0.00000       0.00000       0.00000       0.00000       0.00000       0.00000  
      11        11         1      2016    recall           pt00022       4.10686       0.00004       0.00000       0.00000       0.00889       0.00600       0.00000       0.05887       0.00081       0.03601       0.00000       0.00000       0.00000       0.00000       0.00000       0.00000       0.00000       0.00000  
      12        12         1      2016    recall           pt00022       4.10686       0.00004       0.00000       0.00000       0.00889       0.00600       0.00000       0.05887       0.00081       0.03601       0.00000       0.00000       0.00000       0.00000       0.00000       0.00000       0.00000       0.00000  
       1         1         1      2017    recall           pt00022       4.10686       0.00003       0.00000       0.00084       0.01701       0.00253       0.00000       0.03233       0.00233       0.03367       0.00000       0.00000       0.00000       0.00000       0.00000       0.00000       0.00000       0.00000  
       2         2         1      2017    recall           pt00022       4.10686       0.00003       0.00000       0.00084       0.01701       0.00253       0.00000       0.03233       0.00233       0.03367       0.00000       0.00000       0.00000       0.00000       0.00000       0.00000       0.00000       0.00000  
       3         3         1      2017    recall           pt00022       4.10686       0.00003       0.00000       0.00084       0.01701       0.00253       0.00000       0.03233       0.00233       0.03367       0.00000       0.00000       0.00000       0.00000       0.00000       0.00000       0.00000       0.00000  
       4         4         1      2017    recall           pt00022       4.10686       0.00003       0.00000       0.00084       0.01701       0.00253       0.00000       0.03233       0.00233       0.03367       0.00000       0.00000       0.00000       0.00000       0.00000       0.00000       0.00000       0.00000  
       5         5         1      2017    recall           pt00022       4.10686       0.00003       0.00000       0.00084       0.01701       0.00253       0.00000       0.03233       0.00233       0.03367       0.00000       0.00000       0.00000       0.00000       0.00000       0.00000       0.00000       0.00000  
       6         6         1      2017    recall           pt00022       4.10686       0.00003       0.00000       0.00084       0.01701       0.00253       0.00000       0.03233       0.00233       0.03367       0.00000       0.00000       0.00000       0.00000       0.00000       0.00000       0.00000       0.00000  
       7         7         1      2017    recall           pt00022       4.10686       0.00003       0.00000       0.00084       0.01701       0.00253       0.00000       0.03233       0.00233       0.03367       0.00000       0.00000       0.00000       0.00000       0.00000       0.00000       0.00000       0.00000  
       8         8         1      2017    recall           pt00022       4.10686       0.00003       0.00000       0.00084       0.01701       0.00253       0.00000       0.03233       0.00233       0.03367       0.00000       0.00000       0.00000       0.00000       0.00000       0.00000       0.00000       0.00000  
       9         9         1      2017    recall           pt00022       4.10686       0.00003       0.00000       0.00084       0.01701       0.00253       0.00000       0.03233       0.00233       0.03367       0.00000       0.00000       0.00000       0.00000       0.00000       0.00000       0.00000       0.00000  
      10        10         1      2017    recall           pt00022       4.10686       0.00003       0.00000       0.00084       0.01701       0.00253       0.00000       0.03233       0.00233       0.03367       0.00000       0.00000       0.00000       0.00000       0.00000       0.00000       0.00000       0.00000  
      11        11         1      2017    recall           pt00022       4.10686       0.00003       0.00000       0.00084       0.01701       0.00253       0.00000       0.03233       0.00233       0.03367       0.00000       0.00000       0.00000       0.00000       0.00000       0.00000       0.00000       0.00000  
      12        12         1      2017    recall           pt00022       4.10686       0.00003       0.00000       0.00084       0.01701       0.00253       0.00000       0.03233       0.00233       0.03367       0.00000       0.00000       0.00000       0.00000       0.00000       0.00000       0.00000       0.00000  
       1         1         1      2018    recall           pt00022       4.38065       0.00003       0.00000       0.00000       0.01488       0.00460       0.00000       0.04843       0.00541       0.02868       0.00000       0.00000       0.00000       0.00000       0.00000       0.00000       0.00000       0.00000  
       2         2         1      2018    recall           pt00022       4.38065       0.00003       0.00000       0.00000       0.01488       0.00460       0.00000       0.04843       0.00541       0.02868       0.00000       0.00000       0.00000       0.00000       0.00000       0.00000       0.00000       0.00000  
       3         3         1      2018    recall           pt00022       4.38065       0.00003       0.00000       0.00000       0.01488       0.00460       0.00000       0.04843       0.00541       0.02868       0.00000       0.00000       0.00000       0.00000       0.00000       0.00000       0.00000       0.00000  
       4         4         1      2018    recall           pt00022       4.38065       0.00003       0.00000       0.00000       0.01488       0.00460       0.00000       0.04843       0.00541       0.02868       0.00000       0.00000       0.00000       0.00000       0.00000       0.00000       0.00000       0.00000  
       5         5         1      2018    recall           pt00022       4.38065       0.00003       0.00000       0.00000       0.01488       0.00460       0.00000       0.04843       0.00541       0.02868       0.00000       0.00000       0.00000       0.00000       0.00000       0.00000       0.00000       0.00000  
       6         6         1      2018    recall           pt00022       4.38065       0.00003       0.00000       0.00000       0.01488       0.00460       0.00000       0.04843       0.00541       0.02868       0.00000       0.00000       0.00000       0.00000       0.00000       0.00000       0.00000       0.00000  
       7         7         1      2018    recall           pt00022       4.38065       0.00003       0.00000       0.00000       0.01488       0.00460       0.00000       0.04843       0.00541       0.02868       0.00000       0.00000       0.00000       0.00000       0.00000       0.00000       0.00000       0.00000  
       8         8         1      2018    recall           pt00022       4.38065       0.00003       0.00000       0.00000       0.01488       0.00460       0.00000       0.04843       0.00541       0.02868       0.00000       0.00000       0.00000       0.00000       0.00000       0.00000       0.00000       0.00000  
       9         9         1      2018    recall           pt00022       4.38065       0.00003       0.00000       0.00000       0.01488       0.00460       0.00000       0.04843       0.00541       0.02868       0.00000       0.00000       0.00000       0.00000       0.00000       0.00000       0.00000       0.00000  
      10        10         1      2018    recall           pt00022       4.38065       0.00003       0.00000       0.00000       0.01488       0.00460       0.00000       0.04843       0.00541       0.02868       0.00000       0.00000       0.00000       0.00000       0.00000       0.00000       0.00000       0.00000  
      11        11         1      2018    recall           pt00022       4.38065       0.00003       0.00000       0.00000       0.01488       0.00460       0.00000       0.04843       0.00541       0.02868       0.00000       0.00000       0.00000       0.00000       0.00000       0.00000       0.00000       0.00000  
      12        12         1      2018    recall           pt00022       4.38065       0.00003       0.00000       0.00000       0.01488       0.00460       0.00000       0.04843       0.00541       0.02868       0.00000       0.00000       0.00000       0.00000       0.00000       0.00000       0.00000       0.00000  
       1         1         1      2019    recall           pt00022       4.11234       0.00004       0.00000       0.00000       0.01424       0.00767       0.00000       0.06078       0.00164       0.03340       0.00000       0.00000       0.00000       0.00000       0.00000       0.00000       0.00000       0.00000  
       2         2         1      2019    recall           pt00022       4.11234       0.00004       0.00000       0.00000       0.01424       0.00767       0.00000       0.06078       0.00164       0.03340       0.00000       0.00000       0.00000       0.00000       0.00000       0.00000       0.00000       0.00000  
       3         3         1      2019    recall           pt00022       4.11234       0.00004       0.00000       0.00000       0.01424       0.00767       0.00000       0.06078       0.00164       0.03340       0.00000       0.00000       0.00000       0.00000       0.00000       0.00000       0.00000       0.00000  
       4         4         1      2019    recall           pt00022       4.11234       0.00004       0.00000       0.00000       0.01424       0.00767       0.00000       0.06078       0.00164       0.03340       0.00000       0.00000       0.00000       0.00000       0.00000       0.00000       0.00000       0.00000  
       5         5         1      2019    recall           pt00022       4.11234       0.00004       0.00000       0.00000       0.01424       0.00767       0.00000       0.06078       0.00164       0.03340       0.00000       0.00000       0.00000       0.00000       0.00000       0.00000       0.00000       0.00000  
       6         6         1      2019    recall           pt00022       4.11234       0.00004       0.00000       0.00000       0.01424       0.00767       0.00000       0.06078       0.00164       0.03340       0.00000       0.00000       0.00000       0.00000       0.00000       0.00000       0.00000       0.00000  
       7         7         1      2019    recall           pt00022       4.11234       0.00004       0.00000       0.00000       0.01424       0.00767       0.00000       0.06078       0.00164       0.03340       0.00000       0.00000       0.00000       0.00000       0.00000       0.00000       0.00000       0.00000  
       8         8         1      2019    recall           pt00022       4.11234       0.00004       0.00000       0.00000       0.01424       0.00767       0.00000       0.06078       0.00164       0.03340       0.00000       0.00000       0.00000       0.00000       0.00000       0.00000       0.00000       0.00000  
       9         9         1      2019    recall           pt00022       4.11234       0.00004       0.00000       0.00000       0.01424       0.00767       0.00000       0.06078       0.00164       0.03340       0.00000       0.00000       0.00000       0.00000       0.00000       0.00000       0.00000       0.00000  
      10        10         1      2019    recall           pt00022       4.11234       0.00004       0.00000       0.00000       0.01424       0.00767       0.00000       0.06078       0.00164       0.03340       0.00000       0.00000       0.00000       0.00000       0.00000       0.00000       0.00000       0.00000  
      11        11         1      2019    recall           pt00022       4.11234       0.00004       0.00000       0.00000       0.01424       0.00767       0.00000       0.06078       0.00164       0.03340       0.00000       0.00000       0.00000       0.00000       0.00000       0.00000       0.00000       0.00000  
      12        12         1      2019    recall           pt00022       4.11234       0.00004       0.00000       0.00000       0.01424       0.00767       0.00000       0.06078       0.00164       0.03340       0.00000       0.00000       0.00000       0.00000       0.00000       0.00000       0.00000       0.00000  
