recall.rec: written by SWAT+ editor v2.0.0 on 2022-02-14 13:07
26
    jday        mo    day_mo       iyr    ob_typ           ob_name           flo           sed         ptl_n         ptl_p         no3_n         sol_p          chla         nh3_n         no2_n       cbn_bod           oxy          sand          silt          clay        sm_agg        lg_agg        gravel           tmp  
       1         1         1      1994    recall           pt00004       0.00000       0.00000       0.00000       0.00000       0.00000       0.00000       0.00000       0.00000       0.00000       0.00000       0.00000       0.00000       0.00000       0.00000       0.00000       0.00000       0.00000       0.00000  
       2         2         1      1994    recall           pt00004       0.00000       0.00000       0.00000       0.00000       0.00000       0.00000       0.00000       0.00000       0.00000       0.00000       0.00000       0.00000       0.00000       0.00000       0.00000       0.00000       0.00000       0.00000  
       3         3         1      1994    recall           pt00004       0.00000       0.00000       0.00000       0.00000       0.00000       0.00000       0.00000       0.00000       0.00000       0.00000       0.00000       0.00000       0.00000       0.00000       0.00000       0.00000       0.00000       0.00000  
       4         4         1      1994    recall           pt00004       0.00000       0.00000       0.00000       0.00000       0.00000       0.00000       0.00000       0.00000       0.00000       0.00000       0.00000       0.00000       0.00000       0.00000       0.00000       0.00000       0.00000       0.00000  
       5         5         1      1994    recall           pt00004       0.00000       0.00000       0.00000       0.00000       0.00000       0.00000       0.00000       0.00000       0.00000       0.00000       0.00000       0.00000       0.00000       0.00000       0.00000       0.00000       0.00000       0.00000  
       6         6         1      1994    recall           pt00004       0.00000       0.00000       0.00000       0.00000       0.00000       0.00000       0.00000       0.00000       0.00000       0.00000       0.00000       0.00000       0.00000       0.00000       0.00000       0.00000       0.00000       0.00000  
       7         7         1      1994    recall           pt00004       0.00000       0.00000       0.00000       0.00000       0.00000       0.00000       0.00000       0.00000       0.00000       0.00000       0.00000       0.00000       0.00000       0.00000       0.00000       0.00000       0.00000       0.00000  
       8         8         1      1994    recall           pt00004       0.00000       0.00000       0.00000       0.00000       0.00000       0.00000       0.00000       0.00000       0.00000       0.00000       0.00000       0.00000       0.00000       0.00000       0.00000       0.00000       0.00000       0.00000  
       9         9         1      1994    recall           pt00004       0.00000       0.00000       0.00000       0.00000       0.00000       0.00000       0.00000       0.00000       0.00000       0.00000       0.00000       0.00000       0.00000       0.00000       0.00000       0.00000       0.00000       0.00000  
      10        10         1      1994    recall           pt00004       0.00000       0.00000       0.00000       0.00000       0.00000       0.00000       0.00000       0.00000       0.00000       0.00000       0.00000       0.00000       0.00000       0.00000       0.00000       0.00000       0.00000       0.00000  
      11        11         1      1994    recall           pt00004       0.00000       0.00000       0.00000       0.00000       0.00000       0.00000       0.00000       0.00000       0.00000       0.00000       0.00000       0.00000       0.00000       0.00000       0.00000       0.00000       0.00000       0.00000  
      12        12         1      1994    recall           pt00004       0.00000       0.00000       0.00000       0.00000       0.00000       0.00000       0.00000       0.00000       0.00000       0.00000       0.00000       0.00000       0.00000       0.00000       0.00000       0.00000       0.00000       0.00000  
       1         1         1      1995    recall           pt00004       0.00000       0.00000       0.00000       0.00000       0.00000       0.00000       0.00000       0.00000       0.00000       0.00000       0.00000       0.00000       0.00000       0.00000       0.00000       0.00000       0.00000       0.00000  
       2         2         1      1995    recall           pt00004       0.00000       0.00000       0.00000       0.00000       0.00000       0.00000       0.00000       0.00000       0.00000       0.00000       0.00000       0.00000       0.00000       0.00000       0.00000       0.00000       0.00000       0.00000  
       3         3         1      1995    recall           pt00004       0.00000       0.00000       0.00000       0.00000       0.00000       0.00000       0.00000       0.00000       0.00000       0.00000       0.00000       0.00000       0.00000       0.00000       0.00000       0.00000       0.00000       0.00000  
       4         4         1      1995    recall           pt00004       0.00000       0.00000       0.00000       0.00000       0.00000       0.00000       0.00000       0.00000       0.00000       0.00000       0.00000       0.00000       0.00000       0.00000       0.00000       0.00000       0.00000       0.00000  
       5         5         1      1995    recall           pt00004       0.00000       0.00000       0.00000       0.00000       0.00000       0.00000       0.00000       0.00000       0.00000       0.00000       0.00000       0.00000       0.00000       0.00000       0.00000       0.00000       0.00000       0.00000  
       6         6         1      1995    recall           pt00004       0.00000       0.00000       0.00000       0.00000       0.00000       0.00000       0.00000       0.00000       0.00000       0.00000       0.00000       0.00000       0.00000       0.00000       0.00000       0.00000       0.00000       0.00000  
       7         7         1      1995    recall           pt00004       0.00000       0.00000       0.00000       0.00000       0.00000       0.00000       0.00000       0.00000       0.00000       0.00000       0.00000       0.00000       0.00000       0.00000       0.00000       0.00000       0.00000       0.00000  
       8         8         1      1995    recall           pt00004       0.00000       0.00000       0.00000       0.00000       0.00000       0.00000       0.00000       0.00000       0.00000       0.00000       0.00000       0.00000       0.00000       0.00000       0.00000       0.00000       0.00000       0.00000  
       9         9         1      1995    recall           pt00004       0.00000       0.00000       0.00000       0.00000       0.00000       0.00000       0.00000       0.00000       0.00000       0.00000       0.00000       0.00000       0.00000       0.00000       0.00000       0.00000       0.00000       0.00000  
      10        10         1      1995    recall           pt00004       0.00000       0.00000       0.00000       0.00000       0.00000       0.00000       0.00000       0.00000       0.00000       0.00000       0.00000       0.00000       0.00000       0.00000       0.00000       0.00000       0.00000       0.00000  
      11        11         1      1995    recall           pt00004       0.00000       0.00000       0.00000       0.00000       0.00000       0.00000       0.00000       0.00000       0.00000       0.00000       0.00000       0.00000       0.00000       0.00000       0.00000       0.00000       0.00000       0.00000  
      12        12         1      1995    recall           pt00004       0.00000       0.00000       0.00000       0.00000       0.00000       0.00000       0.00000       0.00000       0.00000       0.00000       0.00000       0.00000       0.00000       0.00000       0.00000       0.00000       0.00000       0.00000  
       1         1         1      1996    recall           pt00004       0.00000       0.00000       0.00000       0.00000       0.00000       0.00000       0.00000       0.00000       0.00000       0.00000       0.00000       0.00000       0.00000       0.00000       0.00000       0.00000       0.00000       0.00000  
       2         2         1      1996    recall           pt00004       0.00000       0.00000       0.00000       0.00000       0.00000       0.00000       0.00000       0.00000       0.00000       0.00000       0.00000       0.00000       0.00000       0.00000       0.00000       0.00000       0.00000       0.00000  
       3         3         1      1996    recall           pt00004       0.00000       0.00000       0.00000       0.00000       0.00000       0.00000       0.00000       0.00000       0.00000       0.00000       0.00000       0.00000       0.00000       0.00000       0.00000       0.00000       0.00000       0.00000  
       4         4         1      1996    recall           pt00004       0.00000       0.00000       0.00000       0.00000       0.00000       0.00000       0.00000       0.00000       0.00000       0.00000       0.00000       0.00000       0.00000       0.00000       0.00000       0.00000       0.00000       0.00000  
       5         5         1      1996    recall           pt00004       0.00000       0.00000       0.00000       0.00000       0.00000       0.00000       0.00000       0.00000       0.00000       0.00000       0.00000       0.00000       0.00000       0.00000       0.00000       0.00000       0.00000       0.00000  
       6         6         1      1996    recall           pt00004       0.00000       0.00000       0.00000       0.00000       0.00000       0.00000       0.00000       0.00000       0.00000       0.00000       0.00000       0.00000       0.00000       0.00000       0.00000       0.00000       0.00000       0.00000  
       7         7         1      1996    recall           pt00004       0.00000       0.00000       0.00000       0.00000       0.00000       0.00000       0.00000       0.00000       0.00000       0.00000       0.00000       0.00000       0.00000       0.00000       0.00000       0.00000       0.00000       0.00000  
       8         8         1      1996    recall           pt00004       0.00000       0.00000       0.00000       0.00000       0.00000       0.00000       0.00000       0.00000       0.00000       0.00000       0.00000       0.00000       0.00000       0.00000       0.00000       0.00000       0.00000       0.00000  
       9         9         1      1996    recall           pt00004       0.00000       0.00000       0.00000       0.00000       0.00000       0.00000       0.00000       0.00000       0.00000       0.00000       0.00000       0.00000       0.00000       0.00000       0.00000       0.00000       0.00000       0.00000  
      10        10         1      1996    recall           pt00004       0.00000       0.00000       0.00000       0.00000       0.00000       0.00000       0.00000       0.00000       0.00000       0.00000       0.00000       0.00000       0.00000       0.00000       0.00000       0.00000       0.00000       0.00000  
      11        11         1      1996    recall           pt00004       0.00000       0.00000       0.00000       0.00000       0.00000       0.00000       0.00000       0.00000       0.00000       0.00000       0.00000       0.00000       0.00000       0.00000       0.00000       0.00000       0.00000       0.00000  
      12        12         1      1996    recall           pt00004       0.00000       0.00000       0.00000       0.00000       0.00000       0.00000       0.00000       0.00000       0.00000       0.00000       0.00000       0.00000       0.00000       0.00000       0.00000       0.00000       0.00000       0.00000  
       1         1         1      1997    recall           pt00004      65.70982       0.00186       0.54301       0.26777       0.01109       0.08132       0.00000       0.83780       0.00444       0.87271       0.00000       0.00000       0.00000       0.00000       0.00000       0.00000       0.00000       0.00000  
       2         2         1      1997    recall           pt00004      65.70982       0.00186       0.54301       0.26777       0.01109       0.08132       0.00000       0.83780       0.00444       0.87271       0.00000       0.00000       0.00000       0.00000       0.00000       0.00000       0.00000       0.00000  
       3         3         1      1997    recall           pt00004      65.70982       0.00186       0.54301       0.26777       0.01109       0.08132       0.00000       0.83780       0.00444       0.87271       0.00000       0.00000       0.00000       0.00000       0.00000       0.00000       0.00000       0.00000  
       4         4         1      1997    recall           pt00004      65.70982       0.00186       0.54301       0.26777       0.01109       0.08132       0.00000       0.83780       0.00444       0.87271       0.00000       0.00000       0.00000       0.00000       0.00000       0.00000       0.00000       0.00000  
       5         5         1      1997    recall           pt00004      65.70982       0.00186       0.54301       0.26777       0.01109       0.08132       0.00000       0.83780       0.00444       0.87271       0.00000       0.00000       0.00000       0.00000       0.00000       0.00000       0.00000       0.00000  
       6         6         1      1997    recall           pt00004      65.70982       0.00186       0.54301       0.26777       0.01109       0.08132       0.00000       0.83780       0.00444       0.87271       0.00000       0.00000       0.00000       0.00000       0.00000       0.00000       0.00000       0.00000  
       7         7         1      1997    recall           pt00004      65.70982       0.00186       0.54301       0.26777       0.01109       0.08132       0.00000       0.83780       0.00444       0.87271       0.00000       0.00000       0.00000       0.00000       0.00000       0.00000       0.00000       0.00000  
       8         8         1      1997    recall           pt00004      65.70982       0.00186       0.54301       0.26777       0.01109       0.08132       0.00000       0.83780       0.00444       0.87271       0.00000       0.00000       0.00000       0.00000       0.00000       0.00000       0.00000       0.00000  
       9         9         1      1997    recall           pt00004      65.70982       0.00186       0.54301       0.26777       0.01109       0.08132       0.00000       0.83780       0.00444       0.87271       0.00000       0.00000       0.00000       0.00000       0.00000       0.00000       0.00000       0.00000  
      10        10         1      1997    recall           pt00004      65.70982       0.00186       0.54301       0.26777       0.01109       0.08132       0.00000       0.83780       0.00444       0.87271       0.00000       0.00000       0.00000       0.00000       0.00000       0.00000       0.00000       0.00000  
      11        11         1      1997    recall           pt00004      65.70982       0.00186       0.54301       0.26777       0.01109       0.08132       0.00000       0.83780       0.00444       0.87271       0.00000       0.00000       0.00000       0.00000       0.00000       0.00000       0.00000       0.00000  
      12        12         1      1997    recall           pt00004      65.70982       0.00186       0.54301       0.26777       0.01109       0.08132       0.00000       0.83780       0.00444       0.87271       0.00000       0.00000       0.00000       0.00000       0.00000       0.00000       0.00000       0.00000  
       1         1         1      1998    recall           pt00004      24.64118       0.00042       0.33586       0.11581       0.03795       0.02218       0.00000       0.17495       0.00320       0.34498       0.00000       0.00000       0.00000       0.00000       0.00000       0.00000       0.00000       0.00000  
       2         2         1      1998    recall           pt00004      24.64118       0.00042       0.33586       0.11581       0.03795       0.02218       0.00000       0.17495       0.00320       0.34498       0.00000       0.00000       0.00000       0.00000       0.00000       0.00000       0.00000       0.00000  
       3         3         1      1998    recall           pt00004      24.64118       0.00042       0.33586       0.11581       0.03795       0.02218       0.00000       0.17495       0.00320       0.34498       0.00000       0.00000       0.00000       0.00000       0.00000       0.00000       0.00000       0.00000  
       4         4         1      1998    recall           pt00004      24.64118       0.00042       0.33586       0.11581       0.03795       0.02218       0.00000       0.17495       0.00320       0.34498       0.00000       0.00000       0.00000       0.00000       0.00000       0.00000       0.00000       0.00000  
       5         5         1      1998    recall           pt00004      24.64118       0.00042       0.33586       0.11581       0.03795       0.02218       0.00000       0.17495       0.00320       0.34498       0.00000       0.00000       0.00000       0.00000       0.00000       0.00000       0.00000       0.00000  
       6         6         1      1998    recall           pt00004      24.64118       0.00042       0.33586       0.11581       0.03795       0.02218       0.00000       0.17495       0.00320       0.34498       0.00000       0.00000       0.00000       0.00000       0.00000       0.00000       0.00000       0.00000  
       7         7         1      1998    recall           pt00004      24.64118       0.00042       0.33586       0.11581       0.03795       0.02218       0.00000       0.17495       0.00320       0.34498       0.00000       0.00000       0.00000       0.00000       0.00000       0.00000       0.00000       0.00000  
       8         8         1      1998    recall           pt00004      24.64118       0.00042       0.33586       0.11581       0.03795       0.02218       0.00000       0.17495       0.00320       0.34498       0.00000       0.00000       0.00000       0.00000       0.00000       0.00000       0.00000       0.00000  
       9         9         1      1998    recall           pt00004      24.64118       0.00042       0.33586       0.11581       0.03795       0.02218       0.00000       0.17495       0.00320       0.34498       0.00000       0.00000       0.00000       0.00000       0.00000       0.00000       0.00000       0.00000  
      10        10         1      1998    recall           pt00004      24.64118       0.00042       0.33586       0.11581       0.03795       0.02218       0.00000       0.17495       0.00320       0.34498       0.00000       0.00000       0.00000       0.00000       0.00000       0.00000       0.00000       0.00000  
      11        11         1      1998    recall           pt00004      24.64118       0.00042       0.33586       0.11581       0.03795       0.02218       0.00000       0.17495       0.00320       0.34498       0.00000       0.00000       0.00000       0.00000       0.00000       0.00000       0.00000       0.00000  
      12        12         1      1998    recall           pt00004      24.64118       0.00042       0.33586       0.11581       0.03795       0.02218       0.00000       0.17495       0.00320       0.34498       0.00000       0.00000       0.00000       0.00000       0.00000       0.00000       0.00000       0.00000  
       1         1         1      1999    recall           pt00004      47.91341       0.00125       0.40219       0.21624       0.29422       0.14182       0.00000       0.96511       0.00209       0.89516       0.00000       0.00000       0.00000       0.00000       0.00000       0.00000       0.00000       0.00000  
       2         2         1      1999    recall           pt00004      47.91341       0.00125       0.40219       0.21624       0.29422       0.14182       0.00000       0.96511       0.00209       0.89516       0.00000       0.00000       0.00000       0.00000       0.00000       0.00000       0.00000       0.00000  
       3         3         1      1999    recall           pt00004      47.91341       0.00125       0.40219       0.21624       0.29422       0.14182       0.00000       0.96511       0.00209       0.89516       0.00000       0.00000       0.00000       0.00000       0.00000       0.00000       0.00000       0.00000  
       4         4         1      1999    recall           pt00004      47.91341       0.00125       0.40219       0.21624       0.29422       0.14182       0.00000       0.96511       0.00209       0.89516       0.00000       0.00000       0.00000       0.00000       0.00000       0.00000       0.00000       0.00000  
       5         5         1      1999    recall           pt00004      47.91341       0.00125       0.40219       0.21624       0.29422       0.14182       0.00000       0.96511       0.00209       0.89516       0.00000       0.00000       0.00000       0.00000       0.00000       0.00000       0.00000       0.00000  
       6         6         1      1999    recall           pt00004      47.91341       0.00125       0.40219       0.21624       0.29422       0.14182       0.00000       0.96511       0.00209       0.89516       0.00000       0.00000       0.00000       0.00000       0.00000       0.00000       0.00000       0.00000  
       7         7         1      1999    recall           pt00004      47.91341       0.00125       0.40219       0.21624       0.29422       0.14182       0.00000       0.96511       0.00209       0.89516       0.00000       0.00000       0.00000       0.00000       0.00000       0.00000       0.00000       0.00000  
       8         8         1      1999    recall           pt00004      47.91341       0.00125       0.40219       0.21624       0.29422       0.14182       0.00000       0.96511       0.00209       0.89516       0.00000       0.00000       0.00000       0.00000       0.00000       0.00000       0.00000       0.00000  
       9         9         1      1999    recall           pt00004      47.91341       0.00125       0.40219       0.21624       0.29422       0.14182       0.00000       0.96511       0.00209       0.89516       0.00000       0.00000       0.00000       0.00000       0.00000       0.00000       0.00000       0.00000  
      10        10         1      1999    recall           pt00004      47.91341       0.00125       0.40219       0.21624       0.29422       0.14182       0.00000       0.96511       0.00209       0.89516       0.00000       0.00000       0.00000       0.00000       0.00000       0.00000       0.00000       0.00000  
      11        11         1      1999    recall           pt00004      47.91341       0.00125       0.40219       0.21624       0.29422       0.14182       0.00000       0.96511       0.00209       0.89516       0.00000       0.00000       0.00000       0.00000       0.00000       0.00000       0.00000       0.00000  
      12        12         1      1999    recall           pt00004      47.91341       0.00125       0.40219       0.21624       0.29422       0.14182       0.00000       0.96511       0.00209       0.89516       0.00000       0.00000       0.00000       0.00000       0.00000       0.00000       0.00000       0.00000  
       1         1         1      2000    recall           pt00004      12.32059       0.00022       0.14637       0.08378       0.07392       0.03943       0.00000       0.27105       0.00148       0.30801       0.00000       0.00000       0.00000       0.00000       0.00000       0.00000       0.00000       0.00000  
       2         2         1      2000    recall           pt00004      12.32059       0.00022       0.14637       0.08378       0.07392       0.03943       0.00000       0.27105       0.00148       0.30801       0.00000       0.00000       0.00000       0.00000       0.00000       0.00000       0.00000       0.00000  
       3         3         1      2000    recall           pt00004      12.32059       0.00022       0.14637       0.08378       0.07392       0.03943       0.00000       0.27105       0.00148       0.30801       0.00000       0.00000       0.00000       0.00000       0.00000       0.00000       0.00000       0.00000  
       4         4         1      2000    recall           pt00004      12.32059       0.00022       0.14637       0.08378       0.07392       0.03943       0.00000       0.27105       0.00148       0.30801       0.00000       0.00000       0.00000       0.00000       0.00000       0.00000       0.00000       0.00000  
       5         5         1      2000    recall           pt00004      12.32059       0.00022       0.14637       0.08378       0.07392       0.03943       0.00000       0.27105       0.00148       0.30801       0.00000       0.00000       0.00000       0.00000       0.00000       0.00000       0.00000       0.00000  
       6         6         1      2000    recall           pt00004      12.32059       0.00022       0.14637       0.08378       0.07392       0.03943       0.00000       0.27105       0.00148       0.30801       0.00000       0.00000       0.00000       0.00000       0.00000       0.00000       0.00000       0.00000  
       7         7         1      2000    recall           pt00004      12.32059       0.00022       0.14637       0.08378       0.07392       0.03943       0.00000       0.27105       0.00148       0.30801       0.00000       0.00000       0.00000       0.00000       0.00000       0.00000       0.00000       0.00000  
       8         8         1      2000    recall           pt00004      12.32059       0.00022       0.14637       0.08378       0.07392       0.03943       0.00000       0.27105       0.00148       0.30801       0.00000       0.00000       0.00000       0.00000       0.00000       0.00000       0.00000       0.00000  
       9         9         1      2000    recall           pt00004      12.32059       0.00022       0.14637       0.08378       0.07392       0.03943       0.00000       0.27105       0.00148       0.30801       0.00000       0.00000       0.00000       0.00000       0.00000       0.00000       0.00000       0.00000  
      10        10         1      2000    recall           pt00004      12.32059       0.00022       0.14637       0.08378       0.07392       0.03943       0.00000       0.27105       0.00148       0.30801       0.00000       0.00000       0.00000       0.00000       0.00000       0.00000       0.00000       0.00000  
      11        11         1      2000    recall           pt00004      12.32059       0.00022       0.14637       0.08378       0.07392       0.03943       0.00000       0.27105       0.00148       0.30801       0.00000       0.00000       0.00000       0.00000       0.00000       0.00000       0.00000       0.00000  
      12        12         1      2000    recall           pt00004      12.32059       0.00022       0.14637       0.08378       0.07392       0.03943       0.00000       0.27105       0.00148       0.30801       0.00000       0.00000       0.00000       0.00000       0.00000       0.00000       0.00000       0.00000  
       1         1         1      2001    recall           pt00004      12.32059       0.00020       0.20292       0.06998       0.00136       0.04041       0.00000       0.23409       0.00320       0.27598       0.00000       0.00000       0.00000       0.00000       0.00000       0.00000       0.00000       0.00000  
       2         2         1      2001    recall           pt00004      12.32059       0.00020       0.20292       0.06998       0.00136       0.04041       0.00000       0.23409       0.00320       0.27598       0.00000       0.00000       0.00000       0.00000       0.00000       0.00000       0.00000       0.00000  
       3         3         1      2001    recall           pt00004      12.32059       0.00020       0.20292       0.06998       0.00136       0.04041       0.00000       0.23409       0.00320       0.27598       0.00000       0.00000       0.00000       0.00000       0.00000       0.00000       0.00000       0.00000  
       4         4         1      2001    recall           pt00004      12.32059       0.00020       0.20292       0.06998       0.00136       0.04041       0.00000       0.23409       0.00320       0.27598       0.00000       0.00000       0.00000       0.00000       0.00000       0.00000       0.00000       0.00000  
       5         5         1      2001    recall           pt00004      12.32059       0.00020       0.20292       0.06998       0.00136       0.04041       0.00000       0.23409       0.00320       0.27598       0.00000       0.00000       0.00000       0.00000       0.00000       0.00000       0.00000       0.00000  
       6         6         1      2001    recall           pt00004      12.32059       0.00020       0.20292       0.06998       0.00136       0.04041       0.00000       0.23409       0.00320       0.27598       0.00000       0.00000       0.00000       0.00000       0.00000       0.00000       0.00000       0.00000  
       7         7         1      2001    recall           pt00004      12.32059       0.00020       0.20292       0.06998       0.00136       0.04041       0.00000       0.23409       0.00320       0.27598       0.00000       0.00000       0.00000       0.00000       0.00000       0.00000       0.00000       0.00000  
       8         8         1      2001    recall           pt00004      12.32059       0.00020       0.20292       0.06998       0.00136       0.04041       0.00000       0.23409       0.00320       0.27598       0.00000       0.00000       0.00000       0.00000       0.00000       0.00000       0.00000       0.00000  
       9         9         1      2001    recall           pt00004      12.32059       0.00020       0.20292       0.06998       0.00136       0.04041       0.00000       0.23409       0.00320       0.27598       0.00000       0.00000       0.00000       0.00000       0.00000       0.00000       0.00000       0.00000  
      10        10         1      2001    recall           pt00004      12.32059       0.00020       0.20292       0.06998       0.00136       0.04041       0.00000       0.23409       0.00320       0.27598       0.00000       0.00000       0.00000       0.00000       0.00000       0.00000       0.00000       0.00000  
      11        11         1      2001    recall           pt00004      12.32059       0.00020       0.20292       0.06998       0.00136       0.04041       0.00000       0.23409       0.00320       0.27598       0.00000       0.00000       0.00000       0.00000       0.00000       0.00000       0.00000       0.00000  
      12        12         1      2001    recall           pt00004      12.32059       0.00020       0.20292       0.06998       0.00136       0.04041       0.00000       0.23409       0.00320       0.27598       0.00000       0.00000       0.00000       0.00000       0.00000       0.00000       0.00000       0.00000  
       1         1         1      2002    recall           pt00004      13.68955       0.00027       0.24157       0.07579       0.01287       0.03943       0.00000       0.20370       0.00271       0.28803       0.00000       0.00000       0.00000       0.00000       0.00000       0.00000       0.00000       0.00000  
       2         2         1      2002    recall           pt00004      13.68955       0.00027       0.24157       0.07579       0.01287       0.03943       0.00000       0.20370       0.00271       0.28803       0.00000       0.00000       0.00000       0.00000       0.00000       0.00000       0.00000       0.00000  
       3         3         1      2002    recall           pt00004      13.68955       0.00027       0.24157       0.07579       0.01287       0.03943       0.00000       0.20370       0.00271       0.28803       0.00000       0.00000       0.00000       0.00000       0.00000       0.00000       0.00000       0.00000  
       4         4         1      2002    recall           pt00004      13.68955       0.00027       0.24157       0.07579       0.01287       0.03943       0.00000       0.20370       0.00271       0.28803       0.00000       0.00000       0.00000       0.00000       0.00000       0.00000       0.00000       0.00000  
       5         5         1      2002    recall           pt00004      13.68955       0.00027       0.24157       0.07579       0.01287       0.03943       0.00000       0.20370       0.00271       0.28803       0.00000       0.00000       0.00000       0.00000       0.00000       0.00000       0.00000       0.00000  
       6         6         1      2002    recall           pt00004      13.68955       0.00027       0.24157       0.07579       0.01287       0.03943       0.00000       0.20370       0.00271       0.28803       0.00000       0.00000       0.00000       0.00000       0.00000       0.00000       0.00000       0.00000  
       7         7         1      2002    recall           pt00004      13.68955       0.00027       0.24157       0.07579       0.01287       0.03943       0.00000       0.20370       0.00271       0.28803       0.00000       0.00000       0.00000       0.00000       0.00000       0.00000       0.00000       0.00000  
       8         8         1      2002    recall           pt00004      13.68955       0.00027       0.24157       0.07579       0.01287       0.03943       0.00000       0.20370       0.00271       0.28803       0.00000       0.00000       0.00000       0.00000       0.00000       0.00000       0.00000       0.00000  
       9         9         1      2002    recall           pt00004      13.68955       0.00027       0.24157       0.07579       0.01287       0.03943       0.00000       0.20370       0.00271       0.28803       0.00000       0.00000       0.00000       0.00000       0.00000       0.00000       0.00000       0.00000  
      10        10         1      2002    recall           pt00004      13.68955       0.00027       0.24157       0.07579       0.01287       0.03943       0.00000       0.20370       0.00271       0.28803       0.00000       0.00000       0.00000       0.00000       0.00000       0.00000       0.00000       0.00000  
      11        11         1      2002    recall           pt00004      13.68955       0.00027       0.24157       0.07579       0.01287       0.03943       0.00000       0.20370       0.00271       0.28803       0.00000       0.00000       0.00000       0.00000       0.00000       0.00000       0.00000       0.00000  
      12        12         1      2002    recall           pt00004      13.68955       0.00027       0.24157       0.07579       0.01287       0.03943       0.00000       0.20370       0.00271       0.28803       0.00000       0.00000       0.00000       0.00000       0.00000       0.00000       0.00000       0.00000  
       1         1         1      2003    recall           pt00004      16.42746       0.00034       0.12156       0.06078       0.07294       0.06078       0.00000       0.29175       0.00000       0.30391       0.00000       0.00000       0.00000       0.00000       0.00000       0.00000       0.00000       0.00000  
       2         2         1      2003    recall           pt00004      16.42746       0.00034       0.12156       0.06078       0.07294       0.06078       0.00000       0.29175       0.00000       0.30391       0.00000       0.00000       0.00000       0.00000       0.00000       0.00000       0.00000       0.00000  
       3         3         1      2003    recall           pt00004      16.42746       0.00034       0.12156       0.06078       0.07294       0.06078       0.00000       0.29175       0.00000       0.30391       0.00000       0.00000       0.00000       0.00000       0.00000       0.00000       0.00000       0.00000  
       4         4         1      2003    recall           pt00004      16.42746       0.00034       0.12156       0.06078       0.07294       0.06078       0.00000       0.29175       0.00000       0.30391       0.00000       0.00000       0.00000       0.00000       0.00000       0.00000       0.00000       0.00000  
       5         5         1      2003    recall           pt00004      16.42746       0.00034       0.12156       0.06078       0.07294       0.06078       0.00000       0.29175       0.00000       0.30391       0.00000       0.00000       0.00000       0.00000       0.00000       0.00000       0.00000       0.00000  
       6         6         1      2003    recall           pt00004      16.42746       0.00034       0.12156       0.06078       0.07294       0.06078       0.00000       0.29175       0.00000       0.30391       0.00000       0.00000       0.00000       0.00000       0.00000       0.00000       0.00000       0.00000  
       7         7         1      2003    recall           pt00004      16.42746       0.00034       0.12156       0.06078       0.07294       0.06078       0.00000       0.29175       0.00000       0.30391       0.00000       0.00000       0.00000       0.00000       0.00000       0.00000       0.00000       0.00000  
       8         8         1      2003    recall           pt00004      16.42746       0.00034       0.12156       0.06078       0.07294       0.06078       0.00000       0.29175       0.00000       0.30391       0.00000       0.00000       0.00000       0.00000       0.00000       0.00000       0.00000       0.00000  
       9         9         1      2003    recall           pt00004      16.42746       0.00034       0.12156       0.06078       0.07294       0.06078       0.00000       0.29175       0.00000       0.30391       0.00000       0.00000       0.00000       0.00000       0.00000       0.00000       0.00000       0.00000  
      10        10         1      2003    recall           pt00004      16.42746       0.00034       0.12156       0.06078       0.07294       0.06078       0.00000       0.29175       0.00000       0.30391       0.00000       0.00000       0.00000       0.00000       0.00000       0.00000       0.00000       0.00000  
      11        11         1      2003    recall           pt00004      16.42746       0.00034       0.12156       0.06078       0.07294       0.06078       0.00000       0.29175       0.00000       0.30391       0.00000       0.00000       0.00000       0.00000       0.00000       0.00000       0.00000       0.00000  
      12        12         1      2003    recall           pt00004      16.42746       0.00034       0.12156       0.06078       0.07294       0.06078       0.00000       0.29175       0.00000       0.30391       0.00000       0.00000       0.00000       0.00000       0.00000       0.00000       0.00000       0.00000  
       1         1         1      2004    recall           pt00004      24.64118       0.00043       0.26415       0.05750       0.09495       0.09692       0.00000       0.32149       0.00115       0.38605       0.00000       0.00000       0.00000       0.00000       0.00000       0.00000       0.00000       0.00000  
       2         2         1      2004    recall           pt00004      24.64118       0.00043       0.26415       0.05750       0.09495       0.09692       0.00000       0.32149       0.00115       0.38605       0.00000       0.00000       0.00000       0.00000       0.00000       0.00000       0.00000       0.00000  
       3         3         1      2004    recall           pt00004      24.64118       0.00043       0.26415       0.05750       0.09495       0.09692       0.00000       0.32149       0.00115       0.38605       0.00000       0.00000       0.00000       0.00000       0.00000       0.00000       0.00000       0.00000  
       4         4         1      2004    recall           pt00004      24.64118       0.00043       0.26415       0.05750       0.09495       0.09692       0.00000       0.32149       0.00115       0.38605       0.00000       0.00000       0.00000       0.00000       0.00000       0.00000       0.00000       0.00000  
       5         5         1      2004    recall           pt00004      24.64118       0.00043       0.26415       0.05750       0.09495       0.09692       0.00000       0.32149       0.00115       0.38605       0.00000       0.00000       0.00000       0.00000       0.00000       0.00000       0.00000       0.00000  
       6         6         1      2004    recall           pt00004      24.64118       0.00043       0.26415       0.05750       0.09495       0.09692       0.00000       0.32149       0.00115       0.38605       0.00000       0.00000       0.00000       0.00000       0.00000       0.00000       0.00000       0.00000  
       7         7         1      2004    recall           pt00004      24.64118       0.00043       0.26415       0.05750       0.09495       0.09692       0.00000       0.32149       0.00115       0.38605       0.00000       0.00000       0.00000       0.00000       0.00000       0.00000       0.00000       0.00000  
       8         8         1      2004    recall           pt00004      24.64118       0.00043       0.26415       0.05750       0.09495       0.09692       0.00000       0.32149       0.00115       0.38605       0.00000       0.00000       0.00000       0.00000       0.00000       0.00000       0.00000       0.00000  
       9         9         1      2004    recall           pt00004      24.64118       0.00043       0.26415       0.05750       0.09495       0.09692       0.00000       0.32149       0.00115       0.38605       0.00000       0.00000       0.00000       0.00000       0.00000       0.00000       0.00000       0.00000  
      10        10         1      2004    recall           pt00004      24.64118       0.00043       0.26415       0.05750       0.09495       0.09692       0.00000       0.32149       0.00115       0.38605       0.00000       0.00000       0.00000       0.00000       0.00000       0.00000       0.00000       0.00000  
      11        11         1      2004    recall           pt00004      24.64118       0.00043       0.26415       0.05750       0.09495       0.09692       0.00000       0.32149       0.00115       0.38605       0.00000       0.00000       0.00000       0.00000       0.00000       0.00000       0.00000       0.00000  
      12        12         1      2004    recall           pt00004      24.64118       0.00043       0.26415       0.05750       0.09495       0.09692       0.00000       0.32149       0.00115       0.38605       0.00000       0.00000       0.00000       0.00000       0.00000       0.00000       0.00000       0.00000  
       1         1         1      2005    recall           pt00004      13.68955       0.00035       0.17999       0.03028       0.07960       0.07628       0.00000       0.25049       0.00159       0.26640       0.00000       0.00000       0.00000       0.00000       0.00000       0.00000       0.00000       0.00000  
       2         2         1      2005    recall           pt00004      13.68955       0.00035       0.17999       0.03028       0.07960       0.07628       0.00000       0.25049       0.00159       0.26640       0.00000       0.00000       0.00000       0.00000       0.00000       0.00000       0.00000       0.00000  
       3         3         1      2005    recall           pt00004      13.68955       0.00035       0.17999       0.03028       0.07960       0.07628       0.00000       0.25049       0.00159       0.26640       0.00000       0.00000       0.00000       0.00000       0.00000       0.00000       0.00000       0.00000  
       4         4         1      2005    recall           pt00004      13.68955       0.00035       0.17999       0.03028       0.07960       0.07628       0.00000       0.25049       0.00159       0.26640       0.00000       0.00000       0.00000       0.00000       0.00000       0.00000       0.00000       0.00000  
       5         5         1      2005    recall           pt00004      13.68955       0.00035       0.17999       0.03028       0.07960       0.07628       0.00000       0.25049       0.00159       0.26640       0.00000       0.00000       0.00000       0.00000       0.00000       0.00000       0.00000       0.00000  
       6         6         1      2005    recall           pt00004      13.68955       0.00035       0.17999       0.03028       0.07960       0.07628       0.00000       0.25049       0.00159       0.26640       0.00000       0.00000       0.00000       0.00000       0.00000       0.00000       0.00000       0.00000  
       7         7         1      2005    recall           pt00004      13.68955       0.00035       0.17999       0.03028       0.07960       0.07628       0.00000       0.25049       0.00159       0.26640       0.00000       0.00000       0.00000       0.00000       0.00000       0.00000       0.00000       0.00000  
       8         8         1      2005    recall           pt00004      13.68955       0.00035       0.17999       0.03028       0.07960       0.07628       0.00000       0.25049       0.00159       0.26640       0.00000       0.00000       0.00000       0.00000       0.00000       0.00000       0.00000       0.00000  
       9         9         1      2005    recall           pt00004      13.68955       0.00035       0.17999       0.03028       0.07960       0.07628       0.00000       0.25049       0.00159       0.26640       0.00000       0.00000       0.00000       0.00000       0.00000       0.00000       0.00000       0.00000  
      10        10         1      2005    recall           pt00004      13.68955       0.00035       0.17999       0.03028       0.07960       0.07628       0.00000       0.25049       0.00159       0.26640       0.00000       0.00000       0.00000       0.00000       0.00000       0.00000       0.00000       0.00000  
      11        11         1      2005    recall           pt00004      13.68955       0.00035       0.17999       0.03028       0.07960       0.07628       0.00000       0.25049       0.00159       0.26640       0.00000       0.00000       0.00000       0.00000       0.00000       0.00000       0.00000       0.00000  
      12        12         1      2005    recall           pt00004      13.68955       0.00035       0.17999       0.03028       0.07960       0.07628       0.00000       0.25049       0.00159       0.26640       0.00000       0.00000       0.00000       0.00000       0.00000       0.00000       0.00000       0.00000  
       1         1         1      2006    recall           pt00004      19.16536       0.00047       0.37414       0.11023       0.17807       0.08690       0.00000       0.36732       0.00698       0.49282       0.00000       0.00000       0.00000       0.00000       0.00000       0.00000       0.00000       0.00000  
       2         2         1      2006    recall           pt00004      19.16536       0.00047       0.37414       0.11023       0.17807       0.08690       0.00000       0.36732       0.00698       0.49282       0.00000       0.00000       0.00000       0.00000       0.00000       0.00000       0.00000       0.00000  
       3         3         1      2006    recall           pt00004      19.16536       0.00047       0.37414       0.11023       0.17807       0.08690       0.00000       0.36732       0.00698       0.49282       0.00000       0.00000       0.00000       0.00000       0.00000       0.00000       0.00000       0.00000  
       4         4         1      2006    recall           pt00004      19.16536       0.00047       0.37414       0.11023       0.17807       0.08690       0.00000       0.36732       0.00698       0.49282       0.00000       0.00000       0.00000       0.00000       0.00000       0.00000       0.00000       0.00000  
       5         5         1      2006    recall           pt00004      19.16536       0.00047       0.37414       0.11023       0.17807       0.08690       0.00000       0.36732       0.00698       0.49282       0.00000       0.00000       0.00000       0.00000       0.00000       0.00000       0.00000       0.00000  
       6         6         1      2006    recall           pt00004      19.16536       0.00047       0.37414       0.11023       0.17807       0.08690       0.00000       0.36732       0.00698       0.49282       0.00000       0.00000       0.00000       0.00000       0.00000       0.00000       0.00000       0.00000  
       7         7         1      2006    recall           pt00004      19.16536       0.00047       0.37414       0.11023       0.17807       0.08690       0.00000       0.36732       0.00698       0.49282       0.00000       0.00000       0.00000       0.00000       0.00000       0.00000       0.00000       0.00000  
       8         8         1      2006    recall           pt00004      19.16536       0.00047       0.37414       0.11023       0.17807       0.08690       0.00000       0.36732       0.00698       0.49282       0.00000       0.00000       0.00000       0.00000       0.00000       0.00000       0.00000       0.00000  
       9         9         1      2006    recall           pt00004      19.16536       0.00047       0.37414       0.11023       0.17807       0.08690       0.00000       0.36732       0.00698       0.49282       0.00000       0.00000       0.00000       0.00000       0.00000       0.00000       0.00000       0.00000  
      10        10         1      2006    recall           pt00004      19.16536       0.00047       0.37414       0.11023       0.17807       0.08690       0.00000       0.36732       0.00698       0.49282       0.00000       0.00000       0.00000       0.00000       0.00000       0.00000       0.00000       0.00000  
      11        11         1      2006    recall           pt00004      19.16536       0.00047       0.37414       0.11023       0.17807       0.08690       0.00000       0.36732       0.00698       0.49282       0.00000       0.00000       0.00000       0.00000       0.00000       0.00000       0.00000       0.00000  
      12        12         1      2006    recall           pt00004      19.16536       0.00047       0.37414       0.11023       0.17807       0.08690       0.00000       0.36732       0.00698       0.49282       0.00000       0.00000       0.00000       0.00000       0.00000       0.00000       0.00000       0.00000  
       1         1         1      2007    recall           pt00004      41.06864       0.00065       0.43556       0.12554       0.11132       0.10681       0.00000       0.51756       0.00296       0.58087       0.00000       0.00000       0.00000       0.00000       0.00000       0.00000       0.00000       0.00000  
       2         2         1      2007    recall           pt00004      41.06864       0.00065       0.43556       0.12554       0.11132       0.10681       0.00000       0.51756       0.00296       0.58087       0.00000       0.00000       0.00000       0.00000       0.00000       0.00000       0.00000       0.00000  
       3         3         1      2007    recall           pt00004      41.06864       0.00065       0.43556       0.12554       0.11132       0.10681       0.00000       0.51756       0.00296       0.58087       0.00000       0.00000       0.00000       0.00000       0.00000       0.00000       0.00000       0.00000  
       4         4         1      2007    recall           pt00004      41.06864       0.00065       0.43556       0.12554       0.11132       0.10681       0.00000       0.51756       0.00296       0.58087       0.00000       0.00000       0.00000       0.00000       0.00000       0.00000       0.00000       0.00000  
       5         5         1      2007    recall           pt00004      41.06864       0.00065       0.43556       0.12554       0.11132       0.10681       0.00000       0.51756       0.00296       0.58087       0.00000       0.00000       0.00000       0.00000       0.00000       0.00000       0.00000       0.00000  
       6         6         1      2007    recall           pt00004      41.06864       0.00065       0.43556       0.12554       0.11132       0.10681       0.00000       0.51756       0.00296       0.58087       0.00000       0.00000       0.00000       0.00000       0.00000       0.00000       0.00000       0.00000  
       7         7         1      2007    recall           pt00004      41.06864       0.00065       0.43556       0.12554       0.11132       0.10681       0.00000       0.51756       0.00296       0.58087       0.00000       0.00000       0.00000       0.00000       0.00000       0.00000       0.00000       0.00000  
       8         8         1      2007    recall           pt00004      41.06864       0.00065       0.43556       0.12554       0.11132       0.10681       0.00000       0.51756       0.00296       0.58087       0.00000       0.00000       0.00000       0.00000       0.00000       0.00000       0.00000       0.00000  
       9         9         1      2007    recall           pt00004      41.06864       0.00065       0.43556       0.12554       0.11132       0.10681       0.00000       0.51756       0.00296       0.58087       0.00000       0.00000       0.00000       0.00000       0.00000       0.00000       0.00000       0.00000  
      10        10         1      2007    recall           pt00004      41.06864       0.00065       0.43556       0.12554       0.11132       0.10681       0.00000       0.51756       0.00296       0.58087       0.00000       0.00000       0.00000       0.00000       0.00000       0.00000       0.00000       0.00000  
      11        11         1      2007    recall           pt00004      41.06864       0.00065       0.43556       0.12554       0.11132       0.10681       0.00000       0.51756       0.00296       0.58087       0.00000       0.00000       0.00000       0.00000       0.00000       0.00000       0.00000       0.00000  
      12        12         1      2007    recall           pt00004      41.06864       0.00065       0.43556       0.12554       0.11132       0.10681       0.00000       0.51756       0.00296       0.58087       0.00000       0.00000       0.00000       0.00000       0.00000       0.00000       0.00000       0.00000  
       1         1         1      2008    recall           pt00004      96.64820       0.00139       0.43435       0.16310       0.07957       0.12696       0.00000       0.78817       0.01380       0.74920       0.00000       0.00000       0.00000       0.00000       0.00000       0.00000       0.00000       0.00000  
       2         2         1      2008    recall           pt00004      96.64820       0.00139       0.43435       0.16310       0.07957       0.12696       0.00000       0.78817       0.01380       0.74920       0.00000       0.00000       0.00000       0.00000       0.00000       0.00000       0.00000       0.00000  
       3         3         1      2008    recall           pt00004      96.64820       0.00139       0.43435       0.16310       0.07957       0.12696       0.00000       0.78817       0.01380       0.74920       0.00000       0.00000       0.00000       0.00000       0.00000       0.00000       0.00000       0.00000  
       4         4         1      2008    recall           pt00004      96.64820       0.00139       0.43435       0.16310       0.07957       0.12696       0.00000       0.78817       0.01380       0.74920       0.00000       0.00000       0.00000       0.00000       0.00000       0.00000       0.00000       0.00000  
       5         5         1      2008    recall           pt00004      96.64820       0.00139       0.43435       0.16310       0.07957       0.12696       0.00000       0.78817       0.01380       0.74920       0.00000       0.00000       0.00000       0.00000       0.00000       0.00000       0.00000       0.00000  
       6         6         1      2008    recall           pt00004      96.64820       0.00139       0.43435       0.16310       0.07957       0.12696       0.00000       0.78817       0.01380       0.74920       0.00000       0.00000       0.00000       0.00000       0.00000       0.00000       0.00000       0.00000  
       7         7         1      2008    recall           pt00004      96.64820       0.00139       0.43435       0.16310       0.07957       0.12696       0.00000       0.78817       0.01380       0.74920       0.00000       0.00000       0.00000       0.00000       0.00000       0.00000       0.00000       0.00000  
       8         8         1      2008    recall           pt00004      96.64820       0.00139       0.43435       0.16310       0.07957       0.12696       0.00000       0.78817       0.01380       0.74920       0.00000       0.00000       0.00000       0.00000       0.00000       0.00000       0.00000       0.00000  
       9         9         1      2008    recall           pt00004      96.64820       0.00139       0.43435       0.16310       0.07957       0.12696       0.00000       0.78817       0.01380       0.74920       0.00000       0.00000       0.00000       0.00000       0.00000       0.00000       0.00000       0.00000  
      10        10         1      2008    recall           pt00004      96.64820       0.00139       0.43435       0.16310       0.07957       0.12696       0.00000       0.78817       0.01380       0.74920       0.00000       0.00000       0.00000       0.00000       0.00000       0.00000       0.00000       0.00000  
      11        11         1      2008    recall           pt00004      96.64820       0.00139       0.43435       0.16310       0.07957       0.12696       0.00000       0.78817       0.01380       0.74920       0.00000       0.00000       0.00000       0.00000       0.00000       0.00000       0.00000       0.00000  
      12        12         1      2008    recall           pt00004      96.64820       0.00139       0.43435       0.16310       0.07957       0.12696       0.00000       0.78817       0.01380       0.74920       0.00000       0.00000       0.00000       0.00000       0.00000       0.00000       0.00000       0.00000  
       1         1         1      2009    recall           pt00004      73.37597       0.00054       0.36884       0.18830       0.44203       0.22325       0.00000       1.36467       0.01015       1.02888       0.00000       0.00000       0.00000       0.00000       0.00000       0.00000       0.00000       0.00000  
       2         2         1      2009    recall           pt00004      73.37597       0.00054       0.36884       0.18830       0.44203       0.22325       0.00000       1.36467       0.01015       1.02888       0.00000       0.00000       0.00000       0.00000       0.00000       0.00000       0.00000       0.00000  
       3         3         1      2009    recall           pt00004      73.37597       0.00054       0.36884       0.18830       0.44203       0.22325       0.00000       1.36467       0.01015       1.02888       0.00000       0.00000       0.00000       0.00000       0.00000       0.00000       0.00000       0.00000  
       4         4         1      2009    recall           pt00004      73.37597       0.00054       0.36884       0.18830       0.44203       0.22325       0.00000       1.36467       0.01015       1.02888       0.00000       0.00000       0.00000       0.00000       0.00000       0.00000       0.00000       0.00000  
       5         5         1      2009    recall           pt00004      73.37597       0.00054       0.36884       0.18830       0.44203       0.22325       0.00000       1.36467       0.01015       1.02888       0.00000       0.00000       0.00000       0.00000       0.00000       0.00000       0.00000       0.00000  
       6         6         1      2009    recall           pt00004      73.37597       0.00054       0.36884       0.18830       0.44203       0.22325       0.00000       1.36467       0.01015       1.02888       0.00000       0.00000       0.00000       0.00000       0.00000       0.00000       0.00000       0.00000  
       7         7         1      2009    recall           pt00004      73.37597       0.00054       0.36884       0.18830       0.44203       0.22325       0.00000       1.36467       0.01015       1.02888       0.00000       0.00000       0.00000       0.00000       0.00000       0.00000       0.00000       0.00000  
       8         8         1      2009    recall           pt00004      73.37597       0.00054       0.36884       0.18830       0.44203       0.22325       0.00000       1.36467       0.01015       1.02888       0.00000       0.00000       0.00000       0.00000       0.00000       0.00000       0.00000       0.00000  
       9         9         1      2009    recall           pt00004      73.37597       0.00054       0.36884       0.18830       0.44203       0.22325       0.00000       1.36467       0.01015       1.02888       0.00000       0.00000       0.00000       0.00000       0.00000       0.00000       0.00000       0.00000  
      10        10         1      2009    recall           pt00004      73.37597       0.00054       0.36884       0.18830       0.44203       0.22325       0.00000       1.36467       0.01015       1.02888       0.00000       0.00000       0.00000       0.00000       0.00000       0.00000       0.00000       0.00000  
      11        11         1      2009    recall           pt00004      73.37597       0.00054       0.36884       0.18830       0.44203       0.22325       0.00000       1.36467       0.01015       1.02888       0.00000       0.00000       0.00000       0.00000       0.00000       0.00000       0.00000       0.00000  
      12        12         1      2009    recall           pt00004      73.37597       0.00054       0.36884       0.18830       0.44203       0.22325       0.00000       1.36467       0.01015       1.02888       0.00000       0.00000       0.00000       0.00000       0.00000       0.00000       0.00000       0.00000  
       1         1         1      2010    recall           pt00004      47.91341       0.00021       0.20605       0.09924       0.19857       0.09924       0.00000       0.50284       0.00000       0.49619       0.00000       0.00000       0.00000       0.00000       0.00000       0.00000       0.00000       0.00000  
       2         2         1      2010    recall           pt00004      47.91341       0.00021       0.20605       0.09924       0.19857       0.09924       0.00000       0.50284       0.00000       0.49619       0.00000       0.00000       0.00000       0.00000       0.00000       0.00000       0.00000       0.00000  
       3         3         1      2010    recall           pt00004      47.91341       0.00021       0.20605       0.09924       0.19857       0.09924       0.00000       0.50284       0.00000       0.49619       0.00000       0.00000       0.00000       0.00000       0.00000       0.00000       0.00000       0.00000  
       4         4         1      2010    recall           pt00004      47.91341       0.00021       0.20605       0.09924       0.19857       0.09924       0.00000       0.50284       0.00000       0.49619       0.00000       0.00000       0.00000       0.00000       0.00000       0.00000       0.00000       0.00000  
       5         5         1      2010    recall           pt00004      47.91341       0.00021       0.20605       0.09924       0.19857       0.09924       0.00000       0.50284       0.00000       0.49619       0.00000       0.00000       0.00000       0.00000       0.00000       0.00000       0.00000       0.00000  
       6         6         1      2010    recall           pt00004      47.91341       0.00021       0.20605       0.09924       0.19857       0.09924       0.00000       0.50284       0.00000       0.49619       0.00000       0.00000       0.00000       0.00000       0.00000       0.00000       0.00000       0.00000  
       7         7         1      2010    recall           pt00004      47.91341       0.00021       0.20605       0.09924       0.19857       0.09924       0.00000       0.50284       0.00000       0.49619       0.00000       0.00000       0.00000       0.00000       0.00000       0.00000       0.00000       0.00000  
       8         8         1      2010    recall           pt00004      47.91341       0.00021       0.20605       0.09924       0.19857       0.09924       0.00000       0.50284       0.00000       0.49619       0.00000       0.00000       0.00000       0.00000       0.00000       0.00000       0.00000       0.00000  
       9         9         1      2010    recall           pt00004      47.91341       0.00021       0.20605       0.09924       0.19857       0.09924       0.00000       0.50284       0.00000       0.49619       0.00000       0.00000       0.00000       0.00000       0.00000       0.00000       0.00000       0.00000  
      10        10         1      2010    recall           pt00004      47.91341       0.00021       0.20605       0.09924       0.19857       0.09924       0.00000       0.50284       0.00000       0.49619       0.00000       0.00000       0.00000       0.00000       0.00000       0.00000       0.00000       0.00000  
      11        11         1      2010    recall           pt00004      47.91341       0.00021       0.20605       0.09924       0.19857       0.09924       0.00000       0.50284       0.00000       0.49619       0.00000       0.00000       0.00000       0.00000       0.00000       0.00000       0.00000       0.00000  
      12        12         1      2010    recall           pt00004      47.91341       0.00021       0.20605       0.09924       0.19857       0.09924       0.00000       0.50284       0.00000       0.49619       0.00000       0.00000       0.00000       0.00000       0.00000       0.00000       0.00000       0.00000  
       1         1         1      2011    recall           pt00004      47.36583       0.00057       0.29702       0.13151       0.04653       0.09288       0.00000       0.76607       0.00651       0.56098       0.00000       0.00000       0.00000       0.00000       0.00000       0.00000       0.00000       0.00000  
       2         2         1      2011    recall           pt00004      47.36583       0.00057       0.29702       0.13151       0.04653       0.09288       0.00000       0.76607       0.00651       0.56098       0.00000       0.00000       0.00000       0.00000       0.00000       0.00000       0.00000       0.00000  
       3         3         1      2011    recall           pt00004      47.36583       0.00057       0.29702       0.13151       0.04653       0.09288       0.00000       0.76607       0.00651       0.56098       0.00000       0.00000       0.00000       0.00000       0.00000       0.00000       0.00000       0.00000  
       4         4         1      2011    recall           pt00004      47.36583       0.00057       0.29702       0.13151       0.04653       0.09288       0.00000       0.76607       0.00651       0.56098       0.00000       0.00000       0.00000       0.00000       0.00000       0.00000       0.00000       0.00000  
       5         5         1      2011    recall           pt00004      47.36583       0.00057       0.29702       0.13151       0.04653       0.09288       0.00000       0.76607       0.00651       0.56098       0.00000       0.00000       0.00000       0.00000       0.00000       0.00000       0.00000       0.00000  
       6         6         1      2011    recall           pt00004      47.36583       0.00057       0.29702       0.13151       0.04653       0.09288       0.00000       0.76607       0.00651       0.56098       0.00000       0.00000       0.00000       0.00000       0.00000       0.00000       0.00000       0.00000  
       7         7         1      2011    recall           pt00004      47.36583       0.00057       0.29702       0.13151       0.04653       0.09288       0.00000       0.76607       0.00651       0.56098       0.00000       0.00000       0.00000       0.00000       0.00000       0.00000       0.00000       0.00000  
       8         8         1      2011    recall           pt00004      47.36583       0.00057       0.29702       0.13151       0.04653       0.09288       0.00000       0.76607       0.00651       0.56098       0.00000       0.00000       0.00000       0.00000       0.00000       0.00000       0.00000       0.00000  
       9         9         1      2011    recall           pt00004      47.36583       0.00057       0.29702       0.13151       0.04653       0.09288       0.00000       0.76607       0.00651       0.56098       0.00000       0.00000       0.00000       0.00000       0.00000       0.00000       0.00000       0.00000  
      10        10         1      2011    recall           pt00004      47.36583       0.00057       0.29702       0.13151       0.04653       0.09288       0.00000       0.76607       0.00651       0.56098       0.00000       0.00000       0.00000       0.00000       0.00000       0.00000       0.00000       0.00000  
      11        11         1      2011    recall           pt00004      47.36583       0.00057       0.29702       0.13151       0.04653       0.09288       0.00000       0.76607       0.00651       0.56098       0.00000       0.00000       0.00000       0.00000       0.00000       0.00000       0.00000       0.00000  
      12        12         1      2011    recall           pt00004      47.36583       0.00057       0.29702       0.13151       0.04653       0.09288       0.00000       0.76607       0.00651       0.56098       0.00000       0.00000       0.00000       0.00000       0.00000       0.00000       0.00000       0.00000  
       1         1         1      2012    recall           pt00004      44.35413       0.00000       0.32229       0.10015       0.11835       0.07814       0.00000       0.34866       0.00092       0.44573       0.00000       0.00000       0.00000       0.00000       0.00000       0.00000       0.00000       0.00000  
       2         2         1      2012    recall           pt00004      44.35413       0.00000       0.32229       0.10015       0.11835       0.07814       0.00000       0.34866       0.00092       0.44573       0.00000       0.00000       0.00000       0.00000       0.00000       0.00000       0.00000       0.00000  
       3         3         1      2012    recall           pt00004      44.35413       0.00000       0.32229       0.10015       0.11835       0.07814       0.00000       0.34866       0.00092       0.44573       0.00000       0.00000       0.00000       0.00000       0.00000       0.00000       0.00000       0.00000  
       4         4         1      2012    recall           pt00004      44.35413       0.00000       0.32229       0.10015       0.11835       0.07814       0.00000       0.34866       0.00092       0.44573       0.00000       0.00000       0.00000       0.00000       0.00000       0.00000       0.00000       0.00000  
       5         5         1      2012    recall           pt00004      44.35413       0.00000       0.32229       0.10015       0.11835       0.07814       0.00000       0.34866       0.00092       0.44573       0.00000       0.00000       0.00000       0.00000       0.00000       0.00000       0.00000       0.00000  
       6         6         1      2012    recall           pt00004      44.35413       0.00000       0.32229       0.10015       0.11835       0.07814       0.00000       0.34866       0.00092       0.44573       0.00000       0.00000       0.00000       0.00000       0.00000       0.00000       0.00000       0.00000  
       7         7         1      2012    recall           pt00004      44.35413       0.00000       0.32229       0.10015       0.11835       0.07814       0.00000       0.34866       0.00092       0.44573       0.00000       0.00000       0.00000       0.00000       0.00000       0.00000       0.00000       0.00000  
       8         8         1      2012    recall           pt00004      44.35413       0.00000       0.32229       0.10015       0.11835       0.07814       0.00000       0.34866       0.00092       0.44573       0.00000       0.00000       0.00000       0.00000       0.00000       0.00000       0.00000       0.00000  
       9         9         1      2012    recall           pt00004      44.35413       0.00000       0.32229       0.10015       0.11835       0.07814       0.00000       0.34866       0.00092       0.44573       0.00000       0.00000       0.00000       0.00000       0.00000       0.00000       0.00000       0.00000  
      10        10         1      2012    recall           pt00004      44.35413       0.00000       0.32229       0.10015       0.11835       0.07814       0.00000       0.34866       0.00092       0.44573       0.00000       0.00000       0.00000       0.00000       0.00000       0.00000       0.00000       0.00000  
      11        11         1      2012    recall           pt00004      44.35413       0.00000       0.32229       0.10015       0.11835       0.07814       0.00000       0.34866       0.00092       0.44573       0.00000       0.00000       0.00000       0.00000       0.00000       0.00000       0.00000       0.00000  
      12        12         1      2012    recall           pt00004      44.35413       0.00000       0.32229       0.10015       0.11835       0.07814       0.00000       0.34866       0.00092       0.44573       0.00000       0.00000       0.00000       0.00000       0.00000       0.00000       0.00000       0.00000  
       1         1         1      2013    recall           pt00004      26.55772       0.00000       0.06193       0.01290       0.06193       0.01290       0.00000       0.08257       0.00000       0.25804       0.00000       0.00000       0.00000       0.00000       0.00000       0.00000       0.00000       0.00000  
       2         2         1      2013    recall           pt00004      26.55772       0.00000       0.06193       0.01290       0.06193       0.01290       0.00000       0.08257       0.00000       0.25804       0.00000       0.00000       0.00000       0.00000       0.00000       0.00000       0.00000       0.00000  
       3         3         1      2013    recall           pt00004      26.55772       0.00000       0.06193       0.01290       0.06193       0.01290       0.00000       0.08257       0.00000       0.25804       0.00000       0.00000       0.00000       0.00000       0.00000       0.00000       0.00000       0.00000  
       4         4         1      2013    recall           pt00004      26.55772       0.00000       0.06193       0.01290       0.06193       0.01290       0.00000       0.08257       0.00000       0.25804       0.00000       0.00000       0.00000       0.00000       0.00000       0.00000       0.00000       0.00000  
       5         5         1      2013    recall           pt00004      26.55772       0.00000       0.06193       0.01290       0.06193       0.01290       0.00000       0.08257       0.00000       0.25804       0.00000       0.00000       0.00000       0.00000       0.00000       0.00000       0.00000       0.00000  
       6         6         1      2013    recall           pt00004      26.55772       0.00000       0.06193       0.01290       0.06193       0.01290       0.00000       0.08257       0.00000       0.25804       0.00000       0.00000       0.00000       0.00000       0.00000       0.00000       0.00000       0.00000  
       7         7         1      2013    recall           pt00004      26.55772       0.00000       0.06193       0.01290       0.06193       0.01290       0.00000       0.08257       0.00000       0.25804       0.00000       0.00000       0.00000       0.00000       0.00000       0.00000       0.00000       0.00000  
       8         8         1      2013    recall           pt00004      26.55772       0.00000       0.06193       0.01290       0.06193       0.01290       0.00000       0.08257       0.00000       0.25804       0.00000       0.00000       0.00000       0.00000       0.00000       0.00000       0.00000       0.00000  
       9         9         1      2013    recall           pt00004      26.55772       0.00000       0.06193       0.01290       0.06193       0.01290       0.00000       0.08257       0.00000       0.25804       0.00000       0.00000       0.00000       0.00000       0.00000       0.00000       0.00000       0.00000  
      10        10         1      2013    recall           pt00004      26.55772       0.00000       0.06193       0.01290       0.06193       0.01290       0.00000       0.08257       0.00000       0.25804       0.00000       0.00000       0.00000       0.00000       0.00000       0.00000       0.00000       0.00000  
      11        11         1      2013    recall           pt00004      26.55772       0.00000       0.06193       0.01290       0.06193       0.01290       0.00000       0.08257       0.00000       0.25804       0.00000       0.00000       0.00000       0.00000       0.00000       0.00000       0.00000       0.00000  
      12        12         1      2013    recall           pt00004      26.55772       0.00000       0.06193       0.01290       0.06193       0.01290       0.00000       0.08257       0.00000       0.25804       0.00000       0.00000       0.00000       0.00000       0.00000       0.00000       0.00000       0.00000  
       1         1         1      2014    recall           pt00004      29.84321       0.00000       0.07926       0.01651       0.07926       0.01651       0.00000       0.10568       0.00000       0.33026       0.00000       0.00000       0.00000       0.00000       0.00000       0.00000       0.00000       0.00000  
       2         2         1      2014    recall           pt00004      29.84321       0.00000       0.07926       0.01651       0.07926       0.01651       0.00000       0.10568       0.00000       0.33026       0.00000       0.00000       0.00000       0.00000       0.00000       0.00000       0.00000       0.00000  
       3         3         1      2014    recall           pt00004      29.84321       0.00000       0.07926       0.01651       0.07926       0.01651       0.00000       0.10568       0.00000       0.33026       0.00000       0.00000       0.00000       0.00000       0.00000       0.00000       0.00000       0.00000  
       4         4         1      2014    recall           pt00004      29.84321       0.00000       0.07926       0.01651       0.07926       0.01651       0.00000       0.10568       0.00000       0.33026       0.00000       0.00000       0.00000       0.00000       0.00000       0.00000       0.00000       0.00000  
       5         5         1      2014    recall           pt00004      29.84321       0.00000       0.07926       0.01651       0.07926       0.01651       0.00000       0.10568       0.00000       0.33026       0.00000       0.00000       0.00000       0.00000       0.00000       0.00000       0.00000       0.00000  
       6         6         1      2014    recall           pt00004      29.84321       0.00000       0.07926       0.01651       0.07926       0.01651       0.00000       0.10568       0.00000       0.33026       0.00000       0.00000       0.00000       0.00000       0.00000       0.00000       0.00000       0.00000  
       7         7         1      2014    recall           pt00004      29.84321       0.00000       0.07926       0.01651       0.07926       0.01651       0.00000       0.10568       0.00000       0.33026       0.00000       0.00000       0.00000       0.00000       0.00000       0.00000       0.00000       0.00000  
       8         8         1      2014    recall           pt00004      29.84321       0.00000       0.07926       0.01651       0.07926       0.01651       0.00000       0.10568       0.00000       0.33026       0.00000       0.00000       0.00000       0.00000       0.00000       0.00000       0.00000       0.00000  
[...]
      11        11         1      2014    recall           pt00004      29.84321       0.00000       0.07926       0.01651       0.07926       0.01651       0.00000       0.10568       0.00000       0.33026       0.00000       0.00000       0.00000       0.00000       0.00000       0.00000       0.00000       0.00000  
      12        12         1      2014    recall           pt00004      29.84321       0.00000       0.07926       0.01651       0.07926       0.01651       0.00000       0.10568       0.00000       0.33026       0.00000       0.00000       0.00000       0.00000       0.00000       0.00000       0.00000       0.00000  
       1         1         1      2015    recall           pt00004      27.10530       0.00000       0.07285       0.01518       0.07285       0.01518       0.00000       0.09714       0.00000       0.30356       0.00000       0.00000       0.00000       0.00000       0.00000       0.00000       0.00000       0.00000  
       2         2         1      2015    recall           pt00004      27.10530       0.00000       0.07285       0.01518       0.07285       0.01518       0.00000       0.09714       0.00000       0.30356       0.00000       0.00000       0.00000       0.00000       0.00000       0.00000       0.00000       0.00000  
       3         3         1      2015    recall           pt00004      27.10530       0.00000       0.07285       0.01518       0.07285       0.01518       0.00000       0.09714       0.00000       0.30356       0.00000       0.00000       0.00000       0.00000       0.00000       0.00000       0.00000       0.00000  
       4         4         1      2015    recall           pt00004      27.10530       0.00000       0.07285       0.01518       0.07285       0.01518       0.00000       0.09714       0.00000       0.30356       0.00000       0.00000       0.00000       0.00000       0.00000       0.00000       0.00000       0.00000  
       5         5         1      2015    recall           pt00004      27.10530       0.00000       0.07285       0.01518       0.07285       0.01518       0.00000       0.09714       0.00000       0.30356       0.00000       0.00000       0.00000       0.00000       0.00000       0.00000       0.00000       0.00000  
       6         6         1      2015    recall           pt00004      27.10530       0.00000       0.07285       0.01518       0.07285       0.01518       0.00000       0.09714       0.00000       0.30356       0.00000       0.00000       0.00000       0.00000       0.00000       0.00000       0.00000       0.00000  
       7         7         1      2015    recall           pt00004      27.10530       0.00000       0.07285       0.01518       0.07285       0.01518       0.00000       0.09714       0.00000       0.30356       0.00000       0.00000       0.00000       0.00000       0.00000       0.00000       0.00000       0.00000  
       8         8         1      2015    recall           pt00004      27.10530       0.00000       0.07285       0.01518       0.07285       0.01518       0.00000       0.09714       0.00000       0.30356       0.00000       0.00000       0.00000       0.00000       0.00000       0.00000       0.00000       0.00000  
       9         9         1      2015    recall           pt00004      27.10530       0.00000       0.07285       0.01518       0.07285       0.01518       0.00000       0.09714       0.00000       0.30356       0.00000       0.00000       0.00000       0.00000       0.00000       0.00000       0.00000       0.00000  
      10        10         1      2015    recall           pt00004      27.10530       0.00000       0.07285       0.01518       0.07285       0.01518       0.00000       0.09714       0.00000       0.30356       0.00000       0.00000       0.00000       0.00000       0.00000       0.00000       0.00000       0.00000  
      11        11         1      2015    recall           pt00004      27.10530       0.00000       0.07285       0.01518       0.07285       0.01518       0.00000       0.09714       0.00000       0.30356       0.00000       0.00000       0.00000       0.00000       0.00000       0.00000       0.00000       0.00000  
      12        12         1      2015    recall           pt00004      27.10530       0.00000       0.07285       0.01518       0.07285       0.01518       0.00000       0.09714       0.00000       0.30356       0.00000       0.00000       0.00000       0.00000       0.00000       0.00000       0.00000       0.00000  
       1         1         1      2016    recall           pt00004      27.10530       0.00000       0.07021       0.01463       0.07021       0.01463       0.00000       0.09361       0.00000       0.29254       0.00000       0.00000       0.00000       0.00000       0.00000       0.00000       0.00000       0.00000  
       2         2         1      2016    recall           pt00004      27.10530       0.00000       0.07021       0.01463       0.07021       0.01463       0.00000       0.09361       0.00000       0.29254       0.00000       0.00000       0.00000       0.00000       0.00000       0.00000       0.00000       0.00000  
       3         3         1      2016    recall           pt00004      27.10530       0.00000       0.07021       0.01463       0.07021       0.01463       0.00000       0.09361       0.00000       0.29254       0.00000       0.00000       0.00000       0.00000       0.00000       0.00000       0.00000       0.00000  
       4         4         1      2016    recall           pt00004      27.10530       0.00000       0.07021       0.01463       0.07021       0.01463       0.00000       0.09361       0.00000       0.29254       0.00000       0.00000       0.00000       0.00000       0.00000       0.00000       0.00000       0.00000  
       5         5         1      2016    recall           pt00004      27.10530       0.00000       0.07021       0.01463       0.07021       0.01463       0.00000       0.09361       0.00000       0.29254       0.00000       0.00000       0.00000       0.00000       0.00000       0.00000       0.00000       0.00000  
       6         6         1      2016    recall           pt00004      27.10530       0.00000       0.07021       0.01463       0.07021       0.01463       0.00000       0.09361       0.00000       0.29254       0.00000       0.00000       0.00000       0.00000       0.00000       0.00000       0.00000       0.00000  
       7         7         1      2016    recall           pt00004      27.10530       0.00000       0.07021       0.01463       0.07021       0.01463       0.00000       0.09361       0.00000       0.29254       0.00000       0.00000       0.00000       0.00000       0.00000       0.00000       0.00000       0.00000  
       8         8         1      2016    recall           pt00004      27.10530       0.00000       0.07021       0.01463       0.07021       0.01463       0.00000       0.09361       0.00000       0.29254       0.00000       0.00000       0.00000       0.00000       0.00000       0.00000       0.00000       0.00000  
       9         9         1      2016    recall           pt00004      27.10530       0.00000       0.07021       0.01463       0.07021       0.01463       0.00000       0.09361       0.00000       0.29254       0.00000       0.00000       0.00000       0.00000       0.00000       0.00000       0.00000       0.00000  
      10        10         1      2016    recall           pt00004      27.10530       0.00000       0.07021       0.01463       0.07021       0.01463       0.00000       0.09361       0.00000       0.29254       0.00000       0.00000       0.00000       0.00000       0.00000       0.00000       0.00000       0.00000  
      11        11         1      2016    recall           pt00004      27.10530       0.00000       0.07021       0.01463       0.07021       0.01463       0.00000       0.09361       0.00000       0.29254       0.00000       0.00000       0.00000       0.00000       0.00000       0.00000       0.00000       0.00000  
      12        12         1      2016    recall           pt00004      27.10530       0.00000       0.07021       0.01463       0.07021       0.01463       0.00000       0.09361       0.00000       0.29254       0.00000       0.00000       0.00000       0.00000       0.00000       0.00000       0.00000       0.00000  
       1         1         1      2017    recall           pt00004      30.39079       0.00000       0.05477       0.01141       0.05477       0.01141       0.00000       0.07303       0.00000       0.22821       0.00000       0.00000       0.00000       0.00000       0.00000       0.00000       0.00000       0.00000  
       2         2         1      2017    recall           pt00004      30.39079       0.00000       0.05477       0.01141       0.05477       0.01141       0.00000       0.07303       0.00000       0.22821       0.00000       0.00000       0.00000       0.00000       0.00000       0.00000       0.00000       0.00000  
       3         3         1      2017    recall           pt00004      30.39079       0.00000       0.05477       0.01141       0.05477       0.01141       0.00000       0.07303       0.00000       0.22821       0.00000       0.00000       0.00000       0.00000       0.00000       0.00000       0.00000       0.00000  
       4         4         1      2017    recall           pt00004      30.39079       0.00000       0.05477       0.01141       0.05477       0.01141       0.00000       0.07303       0.00000       0.22821       0.00000       0.00000       0.00000       0.00000       0.00000       0.00000       0.00000       0.00000  
       5         5         1      2017    recall           pt00004      30.39079       0.00000       0.05477       0.01141       0.05477       0.01141       0.00000       0.07303       0.00000       0.22821       0.00000       0.00000       0.00000       0.00000       0.00000       0.00000       0.00000       0.00000  
       6         6         1      2017    recall           pt00004      30.39079       0.00000       0.05477       0.01141       0.05477       0.01141       0.00000       0.07303       0.00000       0.22821       0.00000       0.00000       0.00000       0.00000       0.00000       0.00000       0.00000       0.00000  
       7         7         1      2017    recall           pt00004      30.39079       0.00000       0.05477       0.01141       0.05477       0.01141       0.00000       0.07303       0.00000       0.22821       0.00000       0.00000       0.00000       0.00000       0.00000       0.00000       0.00000       0.00000  
       8         8         1      2017    recall           pt00004      30.39079       0.00000       0.05477       0.01141       0.05477       0.01141       0.00000       0.07303       0.00000       0.22821       0.00000       0.00000       0.00000       0.00000       0.00000       0.00000       0.00000       0.00000  
       9         9         1      2017    recall           pt00004      30.39079       0.00000       0.05477       0.01141       0.05477       0.01141       0.00000       0.07303       0.00000       0.22821       0.00000       0.00000       0.00000       0.00000       0.00000       0.00000       0.00000       0.00000  
      10        10         1      2017    recall           pt00004      30.39079       0.00000       0.05477       0.01141       0.05477       0.01141       0.00000       0.07303       0.00000       0.22821       0.00000       0.00000       0.00000       0.00000       0.00000       0.00000       0.00000       0.00000  
      11        11         1      2017    recall           pt00004      30.39079       0.00000       0.05477       0.01141       0.05477       0.01141       0.00000       0.07303       0.00000       0.22821       0.00000       0.00000       0.00000       0.00000       0.00000       0.00000       0.00000       0.00000  
      12        12         1      2017    recall           pt00004      30.39079       0.00000       0.05477       0.01141       0.05477       0.01141       0.00000       0.07303       0.00000       0.22821       0.00000       0.00000       0.00000       0.00000       0.00000       0.00000       0.00000       0.00000  
       1         1         1      2018    recall           pt00004      30.11700       0.00000       0.08412       0.01752       0.08412       0.01752       0.00000       0.11216       0.00000       0.35050       0.00000       0.00000       0.00000       0.00000       0.00000       0.00000       0.00000       0.00000  
       2         2         1      2018    recall           pt00004      30.11700       0.00000       0.08412       0.01752       0.08412       0.01752       0.00000       0.11216       0.00000       0.35050       0.00000       0.00000       0.00000       0.00000       0.00000       0.00000       0.00000       0.00000  
       3         3         1      2018    recall           pt00004      30.11700       0.00000       0.08412       0.01752       0.08412       0.01752       0.00000       0.11216       0.00000       0.35050       0.00000       0.00000       0.00000       0.00000       0.00000       0.00000       0.00000       0.00000  
       4         4         1      2018    recall           pt00004      30.11700       0.00000       0.08412       0.01752       0.08412       0.01752       0.00000       0.11216       0.00000       0.35050       0.00000       0.00000       0.00000       0.00000       0.00000       0.00000       0.00000       0.00000  
       5         5         1      2018    recall           pt00004      30.11700       0.00000       0.08412       0.01752       0.08412       0.01752       0.00000       0.11216       0.00000       0.35050       0.00000       0.00000       0.00000       0.00000       0.00000       0.00000       0.00000       0.00000  
       6         6         1      2018    recall           pt00004      30.11700       0.00000       0.08412       0.01752       0.08412       0.01752       0.00000       0.11216       0.00000       0.35050       0.00000       0.00000       0.00000       0.00000       0.00000       0.00000       0.00000       0.00000  
       7         7         1      2018    recall           pt00004      30.11700       0.00000       0.08412       0.01752       0.08412       0.01752       0.00000       0.11216       0.00000       0.35050       0.00000       0.00000       0.00000       0.00000       0.00000       0.00000       0.00000       0.00000  
       8         8         1      2018    recall           pt00004      30.11700       0.00000       0.08412       0.01752       0.08412       0.01752       0.00000       0.11216       0.00000       0.35050       0.00000       0.00000       0.00000       0.00000       0.00000       0.00000       0.00000       0.00000  
       9         9         1      2018    recall           pt00004      30.11700       0.00000       0.08412       0.01752       0.08412       0.01752       0.00000       0.11216       0.00000       0.35050       0.00000       0.00000       0.00000       0.00000       0.00000       0.00000       0.00000       0.00000  
      10        10         1      2018    recall           pt00004      30.11700       0.00000       0.08412       0.01752       0.08412       0.01752       0.00000       0.11216       0.00000       0.35050       0.00000       0.00000       0.00000       0.00000       0.00000       0.00000       0.00000       0.00000  
      11        11         1      2018    recall           pt00004      30.11700       0.00000       0.08412       0.01752       0.08412       0.01752       0.00000       0.11216       0.00000       0.35050       0.00000       0.00000       0.00000       0.00000       0.00000       0.00000       0.00000       0.00000  
      12        12         1      2018    recall           pt00004      30.11700       0.00000       0.08412       0.01752       0.08412       0.01752       0.00000       0.11216       0.00000       0.35050       0.00000       0.00000       0.00000       0.00000       0.00000       0.00000       0.00000       0.00000  
       1         1         1      2019    recall           pt00004      30.43460       0.00000       0.03279       0.00683       0.10863       0.03504       0.00000       0.13379       0.00329       0.26860       0.00000       0.00000       0.00000       0.00000       0.00000       0.00000       0.00000       0.00000  
       2         2         1      2019    recall           pt00004      30.43460       0.00000       0.03279       0.00683       0.10863       0.03504       0.00000       0.13379       0.00329       0.26860       0.00000       0.00000       0.00000       0.00000       0.00000       0.00000       0.00000       0.00000  
       3         3         1      2019    recall           pt00004      30.43460       0.00000       0.03279       0.00683       0.10863       0.03504       0.00000       0.13379       0.00329       0.26860       0.00000       0.00000       0.00000       0.00000       0.00000       0.00000       0.00000       0.00000  
       4         4         1      2019    recall           pt00004      30.43460       0.00000       0.03279       0.00683       0.10863       0.03504       0.00000       0.13379       0.00329       0.26860       0.00000       0.00000       0.00000       0.00000       0.00000       0.00000       0.00000       0.00000  
       5         5         1      2019    recall           pt00004      30.43460       0.00000       0.03279       0.00683       0.10863       0.03504       0.00000       0.13379       0.00329       0.26860       0.00000       0.00000       0.00000       0.00000       0.00000       0.00000       0.00000       0.00000  
       6         6         1      2019    recall           pt00004      30.43460       0.00000       0.03279       0.00683       0.10863       0.03504       0.00000       0.13379       0.00329       0.26860       0.00000       0.00000       0.00000       0.00000       0.00000       0.00000       0.00000       0.00000  
       7         7         1      2019    recall           pt00004      30.43460       0.00000       0.03279       0.00683       0.10863       0.03504       0.00000       0.13379       0.00329       0.26860       0.00000       0.00000       0.00000       0.00000       0.00000       0.00000       0.00000       0.00000  
       8         8         1      2019    recall           pt00004      30.43460       0.00000       0.03279       0.00683       0.10863       0.03504       0.00000       0.13379       0.00329       0.26860       0.00000       0.00000       0.00000       0.00000       0.00000       0.00000       0.00000       0.00000  
       9         9         1      2019    recall           pt00004      30.43460       0.00000       0.03279       0.00683       0.10863       0.03504       0.00000       0.13379       0.00329       0.26860       0.00000       0.00000       0.00000       0.00000       0.00000       0.00000       0.00000       0.00000  
      10        10         1      2019    recall           pt00004      30.43460       0.00000       0.03279       0.00683       0.10863       0.03504       0.00000       0.13379       0.00329       0.26860       0.00000       0.00000       0.00000       0.00000       0.00000       0.00000       0.00000       0.00000  
      11        11         1      2019    recall           pt00004      30.43460       0.00000       0.03279       0.00683       0.10863       0.03504       0.00000       0.13379       0.00329       0.26860       0.00000       0.00000       0.00000       0.00000       0.00000       0.00000       0.00000       0.00000  
      12        12         1      2019    recall           pt00004      30.43460       0.00000       0.03279       0.00683       0.10863       0.03504       0.00000       0.13379       0.00329       0.26860       0.00000       0.00000       0.00000       0.00000       0.00000       0.00000       0.00000       0.00000  
