recall.rec: written by SWAT+ editor v2.0.0 on 2022-02-14 13:07
26
    jday        mo    day_mo       iyr    ob_typ           ob_name           flo           sed         ptl_n         ptl_p         no3_n         sol_p          chla         nh3_n         no2_n       cbn_bod           oxy          sand          silt          clay        sm_agg        lg_agg        gravel           tmp  
       1         1         1      1994    recall           pt00007       0.00000       0.00000       0.00000       0.00000       0.00000       0.00000       0.00000       0.00000       0.00000       0.00000       0.00000       0.00000       0.00000       0.00000       0.00000       0.00000       0.00000       0.00000  
       2         2         1      1994    recall           pt00007       0.00000       0.00000       0.00000       0.00000       0.00000       0.00000       0.00000       0.00000       0.00000       0.00000       0.00000       0.00000       0.00000       0.00000       0.00000       0.00000       0.00000       0.00000  
       3         3         1      1994    recall           pt00007       0.00000       0.00000       0.00000       0.00000       0.00000       0.00000       0.00000       0.00000       0.00000       0.00000       0.00000       0.00000       0.00000       0.00000       0.00000       0.00000       0.00000       0.00000  
       4         4         1      1994    recall           pt00007       0.00000       0.00000       0.00000       0.00000       0.00000       0.00000       0.00000       0.00000       0.00000       0.00000       0.00000       0.00000       0.00000       0.00000       0.00000       0.00000       0.00000       0.00000  
       5         5         1      1994    recall           pt00007       0.00000       0.00000       0.00000       0.00000       0.00000       0.00000       0.00000       0.00000       0.00000       0.00000       0.00000       0.00000       0.00000       0.00000       0.00000       0.00000       0.00000       0.00000  
       6         6         1      1994    recall           pt00007       0.00000       0.00000       0.00000       0.00000       0.00000       0.00000       0.00000       0.00000       0.00000       0.00000       0.00000       0.00000       0.00000       0.00000       0.00000       0.00000       0.00000       0.00000  
       7         7         1      1994    recall           pt00007       0.00000       0.00000       0.00000       0.00000       0.00000       0.00000       0.00000       0.00000       0.00000       0.00000       0.00000       0.00000       0.00000       0.00000       0.00000       0.00000       0.00000       0.00000  
       8         8         1      1994    recall           pt00007       0.00000       0.00000       0.00000       0.00000       0.00000       0.00000       0.00000       0.00000       0.00000       0.00000       0.00000       0.00000       0.00000       0.00000       0.00000       0.00000       0.00000       0.00000  
       9         9         1      1994    recall           pt00007       0.00000       0.00000       0.00000       0.00000       0.00000       0.00000       0.00000       0.00000       0.00000       0.00000       0.00000       0.00000       0.00000       0.00000       0.00000       0.00000       0.00000       0.00000  
      10        10         1      1994    recall           pt00007       0.00000       0.00000       0.00000       0.00000       0.00000       0.00000       0.00000       0.00000       0.00000       0.00000       0.00000       0.00000       0.00000       0.00000       0.00000       0.00000       0.00000       0.00000  
      11        11         1      1994    recall           pt00007       0.00000       0.00000       0.00000       0.00000       0.00000       0.00000       0.00000       0.00000       0.00000       0.00000       0.00000       0.00000       0.00000       0.00000       0.00000       0.00000       0.00000       0.00000  
      12        12         1      1994    recall           pt00007       0.00000       0.00000       0.00000       0.00000       0.00000       0.00000       0.00000       0.00000       0.00000       0.00000       0.00000       0.00000       0.00000       0.00000       0.00000       0.00000       0.00000       0.00000  
       1         1         1      1995    recall           pt00007       0.00000       0.00000       0.00000       0.00000       0.00000       0.00000       0.00000       0.00000       0.00000       0.00000       0.00000       0.00000       0.00000       0.00000       0.00000       0.00000       0.00000       0.00000  
       2         2         1      1995    recall           pt00007       0.00000       0.00000       0.00000       0.00000       0.00000       0.00000       0.00000       0.00000       0.00000       0.00000       0.00000       0.00000       0.00000       0.00000       0.00000       0.00000       0.00000       0.00000  
       3         3         1      1995    recall           pt00007       0.00000       0.00000       0.00000       0.00000       0.00000       0.00000       0.00000       0.00000       0.00000       0.00000       0.00000       0.00000       0.00000       0.00000       0.00000       0.00000       0.00000       0.00000  
       4         4         1      1995    recall           pt00007       0.00000       0.00000       0.00000       0.00000       0.00000       0.00000       0.00000       0.00000       0.00000       0.00000       0.00000       0.00000       0.00000       0.00000       0.00000       0.00000       0.00000       0.00000  
       5         5         1      1995    recall           pt00007       0.00000       0.00000       0.00000       0.00000       0.00000       0.00000       0.00000       0.00000       0.00000       0.00000       0.00000       0.00000       0.00000       0.00000       0.00000       0.00000       0.00000       0.00000  
       6         6         1      1995    recall           pt00007       0.00000       0.00000       0.00000       0.00000       0.00000       0.00000       0.00000       0.00000       0.00000       0.00000       0.00000       0.00000       0.00000       0.00000       0.00000       0.00000       0.00000       0.00000  
       7         7         1      1995    recall           pt00007       0.00000       0.00000       0.00000       0.00000       0.00000       0.00000       0.00000       0.00000       0.00000       0.00000       0.00000       0.00000       0.00000       0.00000       0.00000       0.00000       0.00000       0.00000  
       8         8         1      1995    recall           pt00007       0.00000       0.00000       0.00000       0.00000       0.00000       0.00000       0.00000       0.00000       0.00000       0.00000       0.00000       0.00000       0.00000       0.00000       0.00000       0.00000       0.00000       0.00000  
       9         9         1      1995    recall           pt00007       0.00000       0.00000       0.00000       0.00000       0.00000       0.00000       0.00000       0.00000       0.00000       0.00000       0.00000       0.00000       0.00000       0.00000       0.00000       0.00000       0.00000       0.00000  
      10        10         1      1995    recall           pt00007       0.00000       0.00000       0.00000       0.00000       0.00000       0.00000       0.00000       0.00000       0.00000       0.00000       0.00000       0.00000       0.00000       0.00000       0.00000       0.00000       0.00000       0.00000  
      11        11         1      1995    recall           pt00007       0.00000       0.00000       0.00000       0.00000       0.00000       0.00000       0.00000       0.00000       0.00000       0.00000       0.00000       0.00000       0.00000       0.00000       0.00000       0.00000       0.00000       0.00000  
      12        12         1      1995    recall           pt00007       0.00000       0.00000       0.00000       0.00000       0.00000       0.00000       0.00000       0.00000       0.00000       0.00000       0.00000       0.00000       0.00000       0.00000       0.00000       0.00000       0.00000       0.00000  
       1         1         1      1996    recall           pt00007       0.00000       0.00000       0.00000       0.00000       0.00000       0.00000       0.00000       0.00000       0.00000       0.00000       0.00000       0.00000       0.00000       0.00000       0.00000       0.00000       0.00000       0.00000  
       2         2         1      1996    recall           pt00007       0.00000       0.00000       0.00000       0.00000       0.00000       0.00000       0.00000       0.00000       0.00000       0.00000       0.00000       0.00000       0.00000       0.00000       0.00000       0.00000       0.00000       0.00000  
       3         3         1      1996    recall           pt00007       0.00000       0.00000       0.00000       0.00000       0.00000       0.00000       0.00000       0.00000       0.00000       0.00000       0.00000       0.00000       0.00000       0.00000       0.00000       0.00000       0.00000       0.00000  
       4         4         1      1996    recall           pt00007       0.00000       0.00000       0.00000       0.00000       0.00000       0.00000       0.00000       0.00000       0.00000       0.00000       0.00000       0.00000       0.00000       0.00000       0.00000       0.00000       0.00000       0.00000  
       5         5         1      1996    recall           pt00007       0.00000       0.00000       0.00000       0.00000       0.00000       0.00000       0.00000       0.00000       0.00000       0.00000       0.00000       0.00000       0.00000       0.00000       0.00000       0.00000       0.00000       0.00000  
       6         6         1      1996    recall           pt00007       0.00000       0.00000       0.00000       0.00000       0.00000       0.00000       0.00000       0.00000       0.00000       0.00000       0.00000       0.00000       0.00000       0.00000       0.00000       0.00000       0.00000       0.00000  
       7         7         1      1996    recall           pt00007       0.00000       0.00000       0.00000       0.00000       0.00000       0.00000       0.00000       0.00000       0.00000       0.00000       0.00000       0.00000       0.00000       0.00000       0.00000       0.00000       0.00000       0.00000  
       8         8         1      1996    recall           pt00007       0.00000       0.00000       0.00000       0.00000       0.00000       0.00000       0.00000       0.00000       0.00000       0.00000       0.00000       0.00000       0.00000       0.00000       0.00000       0.00000       0.00000       0.00000  
       9         9         1      1996    recall           pt00007       0.00000       0.00000       0.00000       0.00000       0.00000       0.00000       0.00000       0.00000       0.00000       0.00000       0.00000       0.00000       0.00000       0.00000       0.00000       0.00000       0.00000       0.00000  
      10        10         1      1996    recall           pt00007       0.00000       0.00000       0.00000       0.00000       0.00000       0.00000       0.00000       0.00000       0.00000       0.00000       0.00000       0.00000       0.00000       0.00000       0.00000       0.00000       0.00000       0.00000  
      11        11         1      1996    recall           pt00007       0.00000       0.00000       0.00000       0.00000       0.00000       0.00000       0.00000       0.00000       0.00000       0.00000       0.00000       0.00000       0.00000       0.00000       0.00000       0.00000       0.00000       0.00000  
      12        12         1      1996    recall           pt00007       0.00000       0.00000       0.00000       0.00000       0.00000       0.00000       0.00000       0.00000       0.00000       0.00000       0.00000       0.00000       0.00000       0.00000       0.00000       0.00000       0.00000       0.00000  
       1         1         1      1997    recall           pt00007      27.37909       0.00025       0.22341       0.07584       0.06106       0.03368       0.00000       0.28748       0.00301       0.27379       0.00000       0.00000       0.00000       0.00000       0.00000       0.00000       0.00000       0.00000  
       2         2         1      1997    recall           pt00007      27.37909       0.00025       0.22341       0.07584       0.06106       0.03368       0.00000       0.28748       0.00301       0.27379       0.00000       0.00000       0.00000       0.00000       0.00000       0.00000       0.00000       0.00000  
       3         3         1      1997    recall           pt00007      27.37909       0.00025       0.22341       0.07584       0.06106       0.03368       0.00000       0.28748       0.00301       0.27379       0.00000       0.00000       0.00000       0.00000       0.00000       0.00000       0.00000       0.00000  
       4         4         1      1997    recall           pt00007      27.37909       0.00025       0.22341       0.07584       0.06106       0.03368       0.00000       0.28748       0.00301       0.27379       0.00000       0.00000       0.00000       0.00000       0.00000       0.00000       0.00000       0.00000  
       5         5         1      1997    recall           pt00007      27.37909       0.00025       0.22341       0.07584       0.06106       0.03368       0.00000       0.28748       0.00301       0.27379       0.00000       0.00000       0.00000       0.00000       0.00000       0.00000       0.00000       0.00000  
       6         6         1      1997    recall           pt00007      27.37909       0.00025       0.22341       0.07584       0.06106       0.03368       0.00000       0.28748       0.00301       0.27379       0.00000       0.00000       0.00000       0.00000       0.00000       0.00000       0.00000       0.00000  
       7         7         1      1997    recall           pt00007      27.37909       0.00025       0.22341       0.07584       0.06106       0.03368       0.00000       0.28748       0.00301       0.27379       0.00000       0.00000       0.00000       0.00000       0.00000       0.00000       0.00000       0.00000  
       8         8         1      1997    recall           pt00007      27.37909       0.00025       0.22341       0.07584       0.06106       0.03368       0.00000       0.28748       0.00301       0.27379       0.00000       0.00000       0.00000       0.00000       0.00000       0.00000       0.00000       0.00000  
       9         9         1      1997    recall           pt00007      27.37909       0.00025       0.22341       0.07584       0.06106       0.03368       0.00000       0.28748       0.00301       0.27379       0.00000       0.00000       0.00000       0.00000       0.00000       0.00000       0.00000       0.00000  
      10        10         1      1997    recall           pt00007      27.37909       0.00025       0.22341       0.07584       0.06106       0.03368       0.00000       0.28748       0.00301       0.27379       0.00000       0.00000       0.00000       0.00000       0.00000       0.00000       0.00000       0.00000  
      11        11         1      1997    recall           pt00007      27.37909       0.00025       0.22341       0.07584       0.06106       0.03368       0.00000       0.28748       0.00301       0.27379       0.00000       0.00000       0.00000       0.00000       0.00000       0.00000       0.00000       0.00000  
      12        12         1      1997    recall           pt00007      27.37909       0.00025       0.22341       0.07584       0.06106       0.03368       0.00000       0.28748       0.00301       0.27379       0.00000       0.00000       0.00000       0.00000       0.00000       0.00000       0.00000       0.00000  
       1         1         1      1998    recall           pt00007      27.37909       0.00037       0.11499       0.11006       0.05750       0.03888       0.00000       0.59139       0.01807       0.37236       0.00000       0.00000       0.00000       0.00000       0.00000       0.00000       0.00000       0.00000  
       2         2         1      1998    recall           pt00007      27.37909       0.00037       0.11499       0.11006       0.05750       0.03888       0.00000       0.59139       0.01807       0.37236       0.00000       0.00000       0.00000       0.00000       0.00000       0.00000       0.00000       0.00000  
       3         3         1      1998    recall           pt00007      27.37909       0.00037       0.11499       0.11006       0.05750       0.03888       0.00000       0.59139       0.01807       0.37236       0.00000       0.00000       0.00000       0.00000       0.00000       0.00000       0.00000       0.00000  
       4         4         1      1998    recall           pt00007      27.37909       0.00037       0.11499       0.11006       0.05750       0.03888       0.00000       0.59139       0.01807       0.37236       0.00000       0.00000       0.00000       0.00000       0.00000       0.00000       0.00000       0.00000  
       5         5         1      1998    recall           pt00007      27.37909       0.00037       0.11499       0.11006       0.05750       0.03888       0.00000       0.59139       0.01807       0.37236       0.00000       0.00000       0.00000       0.00000       0.00000       0.00000       0.00000       0.00000  
       6         6         1      1998    recall           pt00007      27.37909       0.00037       0.11499       0.11006       0.05750       0.03888       0.00000       0.59139       0.01807       0.37236       0.00000       0.00000       0.00000       0.00000       0.00000       0.00000       0.00000       0.00000  
       7         7         1      1998    recall           pt00007      27.37909       0.00037       0.11499       0.11006       0.05750       0.03888       0.00000       0.59139       0.01807       0.37236       0.00000       0.00000       0.00000       0.00000       0.00000       0.00000       0.00000       0.00000  
       8         8         1      1998    recall           pt00007      27.37909       0.00037       0.11499       0.11006       0.05750       0.03888       0.00000       0.59139       0.01807       0.37236       0.00000       0.00000       0.00000       0.00000       0.00000       0.00000       0.00000       0.00000  
       9         9         1      1998    recall           pt00007      27.37909       0.00037       0.11499       0.11006       0.05750       0.03888       0.00000       0.59139       0.01807       0.37236       0.00000       0.00000       0.00000       0.00000       0.00000       0.00000       0.00000       0.00000  
      10        10         1      1998    recall           pt00007      27.37909       0.00037       0.11499       0.11006       0.05750       0.03888       0.00000       0.59139       0.01807       0.37236       0.00000       0.00000       0.00000       0.00000       0.00000       0.00000       0.00000       0.00000  
      11        11         1      1998    recall           pt00007      27.37909       0.00037       0.11499       0.11006       0.05750       0.03888       0.00000       0.59139       0.01807       0.37236       0.00000       0.00000       0.00000       0.00000       0.00000       0.00000       0.00000       0.00000  
      12        12         1      1998    recall           pt00007      27.37909       0.00037       0.11499       0.11006       0.05750       0.03888       0.00000       0.59139       0.01807       0.37236       0.00000       0.00000       0.00000       0.00000       0.00000       0.00000       0.00000       0.00000  
       1         1         1      1999    recall           pt00007      11.77301       0.00013       0.16247       0.03909       0.01177       0.03767       0.00000       0.22063       0.00812       0.19190       0.00000       0.00000       0.00000       0.00000       0.00000       0.00000       0.00000       0.00000  
       2         2         1      1999    recall           pt00007      11.77301       0.00013       0.16247       0.03909       0.01177       0.03767       0.00000       0.22063       0.00812       0.19190       0.00000       0.00000       0.00000       0.00000       0.00000       0.00000       0.00000       0.00000  
       3         3         1      1999    recall           pt00007      11.77301       0.00013       0.16247       0.03909       0.01177       0.03767       0.00000       0.22063       0.00812       0.19190       0.00000       0.00000       0.00000       0.00000       0.00000       0.00000       0.00000       0.00000  
       4         4         1      1999    recall           pt00007      11.77301       0.00013       0.16247       0.03909       0.01177       0.03767       0.00000       0.22063       0.00812       0.19190       0.00000       0.00000       0.00000       0.00000       0.00000       0.00000       0.00000       0.00000  
       5         5         1      1999    recall           pt00007      11.77301       0.00013       0.16247       0.03909       0.01177       0.03767       0.00000       0.22063       0.00812       0.19190       0.00000       0.00000       0.00000       0.00000       0.00000       0.00000       0.00000       0.00000  
       6         6         1      1999    recall           pt00007      11.77301       0.00013       0.16247       0.03909       0.01177       0.03767       0.00000       0.22063       0.00812       0.19190       0.00000       0.00000       0.00000       0.00000       0.00000       0.00000       0.00000       0.00000  
       7         7         1      1999    recall           pt00007      11.77301       0.00013       0.16247       0.03909       0.01177       0.03767       0.00000       0.22063       0.00812       0.19190       0.00000       0.00000       0.00000       0.00000       0.00000       0.00000       0.00000       0.00000  
       8         8         1      1999    recall           pt00007      11.77301       0.00013       0.16247       0.03909       0.01177       0.03767       0.00000       0.22063       0.00812       0.19190       0.00000       0.00000       0.00000       0.00000       0.00000       0.00000       0.00000       0.00000  
       9         9         1      1999    recall           pt00007      11.77301       0.00013       0.16247       0.03909       0.01177       0.03767       0.00000       0.22063       0.00812       0.19190       0.00000       0.00000       0.00000       0.00000       0.00000       0.00000       0.00000       0.00000  
      10        10         1      1999    recall           pt00007      11.77301       0.00013       0.16247       0.03909       0.01177       0.03767       0.00000       0.22063       0.00812       0.19190       0.00000       0.00000       0.00000       0.00000       0.00000       0.00000       0.00000       0.00000  
      11        11         1      1999    recall           pt00007      11.77301       0.00013       0.16247       0.03909       0.01177       0.03767       0.00000       0.22063       0.00812       0.19190       0.00000       0.00000       0.00000       0.00000       0.00000       0.00000       0.00000       0.00000  
      12        12         1      1999    recall           pt00007      11.77301       0.00013       0.16247       0.03909       0.01177       0.03767       0.00000       0.22063       0.00812       0.19190       0.00000       0.00000       0.00000       0.00000       0.00000       0.00000       0.00000       0.00000  
       1         1         1      2000    recall           pt00007      11.77301       0.00012       0.19308       0.01413       0.02296       0.07535       0.00000       0.23487       0.01884       0.22369       0.00000       0.00000       0.00000       0.00000       0.00000       0.00000       0.00000       0.00000  
       2         2         1      2000    recall           pt00007      11.77301       0.00012       0.19308       0.01413       0.02296       0.07535       0.00000       0.23487       0.01884       0.22369       0.00000       0.00000       0.00000       0.00000       0.00000       0.00000       0.00000       0.00000  
       3         3         1      2000    recall           pt00007      11.77301       0.00012       0.19308       0.01413       0.02296       0.07535       0.00000       0.23487       0.01884       0.22369       0.00000       0.00000       0.00000       0.00000       0.00000       0.00000       0.00000       0.00000  
       4         4         1      2000    recall           pt00007      11.77301       0.00012       0.19308       0.01413       0.02296       0.07535       0.00000       0.23487       0.01884       0.22369       0.00000       0.00000       0.00000       0.00000       0.00000       0.00000       0.00000       0.00000  
       5         5         1      2000    recall           pt00007      11.77301       0.00012       0.19308       0.01413       0.02296       0.07535       0.00000       0.23487       0.01884       0.22369       0.00000       0.00000       0.00000       0.00000       0.00000       0.00000       0.00000       0.00000  
       6         6         1      2000    recall           pt00007      11.77301       0.00012       0.19308       0.01413       0.02296       0.07535       0.00000       0.23487       0.01884       0.22369       0.00000       0.00000       0.00000       0.00000       0.00000       0.00000       0.00000       0.00000  
       7         7         1      2000    recall           pt00007      11.77301       0.00012       0.19308       0.01413       0.02296       0.07535       0.00000       0.23487       0.01884       0.22369       0.00000       0.00000       0.00000       0.00000       0.00000       0.00000       0.00000       0.00000  
       8         8         1      2000    recall           pt00007      11.77301       0.00012       0.19308       0.01413       0.02296       0.07535       0.00000       0.23487       0.01884       0.22369       0.00000       0.00000       0.00000       0.00000       0.00000       0.00000       0.00000       0.00000  
       9         9         1      2000    recall           pt00007      11.77301       0.00012       0.19308       0.01413       0.02296       0.07535       0.00000       0.23487       0.01884       0.22369       0.00000       0.00000       0.00000       0.00000       0.00000       0.00000       0.00000       0.00000  
      10        10         1      2000    recall           pt00007      11.77301       0.00012       0.19308       0.01413       0.02296       0.07535       0.00000       0.23487       0.01884       0.22369       0.00000       0.00000       0.00000       0.00000       0.00000       0.00000       0.00000       0.00000  
      11        11         1      2000    recall           pt00007      11.77301       0.00012       0.19308       0.01413       0.02296       0.07535       0.00000       0.23487       0.01884       0.22369       0.00000       0.00000       0.00000       0.00000       0.00000       0.00000       0.00000       0.00000  
      12        12         1      2000    recall           pt00007      11.77301       0.00012       0.19308       0.01413       0.02296       0.07535       0.00000       0.23487       0.01884       0.22369       0.00000       0.00000       0.00000       0.00000       0.00000       0.00000       0.00000       0.00000  
       1         1         1      2001    recall           pt00007      11.77301       0.00008       0.10148       0.01825       0.01954       0.04109       0.00000       0.18684       0.00365       0.14834       0.00000       0.00000       0.00000       0.00000       0.00000       0.00000       0.00000       0.00000  
       2         2         1      2001    recall           pt00007      11.77301       0.00008       0.10148       0.01825       0.01954       0.04109       0.00000       0.18684       0.00365       0.14834       0.00000       0.00000       0.00000       0.00000       0.00000       0.00000       0.00000       0.00000  
       3         3         1      2001    recall           pt00007      11.77301       0.00008       0.10148       0.01825       0.01954       0.04109       0.00000       0.18684       0.00365       0.14834       0.00000       0.00000       0.00000       0.00000       0.00000       0.00000       0.00000       0.00000  
       4         4         1      2001    recall           pt00007      11.77301       0.00008       0.10148       0.01825       0.01954       0.04109       0.00000       0.18684       0.00365       0.14834       0.00000       0.00000       0.00000       0.00000       0.00000       0.00000       0.00000       0.00000  
       5         5         1      2001    recall           pt00007      11.77301       0.00008       0.10148       0.01825       0.01954       0.04109       0.00000       0.18684       0.00365       0.14834       0.00000       0.00000       0.00000       0.00000       0.00000       0.00000       0.00000       0.00000  
       6         6         1      2001    recall           pt00007      11.77301       0.00008       0.10148       0.01825       0.01954       0.04109       0.00000       0.18684       0.00365       0.14834       0.00000       0.00000       0.00000       0.00000       0.00000       0.00000       0.00000       0.00000  
       7         7         1      2001    recall           pt00007      11.77301       0.00008       0.10148       0.01825       0.01954       0.04109       0.00000       0.18684       0.00365       0.14834       0.00000       0.00000       0.00000       0.00000       0.00000       0.00000       0.00000       0.00000  
       8         8         1      2001    recall           pt00007      11.77301       0.00008       0.10148       0.01825       0.01954       0.04109       0.00000       0.18684       0.00365       0.14834       0.00000       0.00000       0.00000       0.00000       0.00000       0.00000       0.00000       0.00000  
       9         9         1      2001    recall           pt00007      11.77301       0.00008       0.10148       0.01825       0.01954       0.04109       0.00000       0.18684       0.00365       0.14834       0.00000       0.00000       0.00000       0.00000       0.00000       0.00000       0.00000       0.00000  
      10        10         1      2001    recall           pt00007      11.77301       0.00008       0.10148       0.01825       0.01954       0.04109       0.00000       0.18684       0.00365       0.14834       0.00000       0.00000       0.00000       0.00000       0.00000       0.00000       0.00000       0.00000  
      11        11         1      2001    recall           pt00007      11.77301       0.00008       0.10148       0.01825       0.01954       0.04109       0.00000       0.18684       0.00365       0.14834       0.00000       0.00000       0.00000       0.00000       0.00000       0.00000       0.00000       0.00000  
      12        12         1      2001    recall           pt00007      11.77301       0.00008       0.10148       0.01825       0.01954       0.04109       0.00000       0.18684       0.00365       0.14834       0.00000       0.00000       0.00000       0.00000       0.00000       0.00000       0.00000       0.00000  
       1         1         1      2002    recall           pt00007      10.95164       0.00010       0.12046       0.01715       0.00756       0.03669       0.00000       0.15223       0.00241       0.13460       0.00000       0.00000       0.00000       0.00000       0.00000       0.00000       0.00000       0.00000  
       2         2         1      2002    recall           pt00007      10.95164       0.00010       0.12046       0.01715       0.00756       0.03669       0.00000       0.15223       0.00241       0.13460       0.00000       0.00000       0.00000       0.00000       0.00000       0.00000       0.00000       0.00000  
       3         3         1      2002    recall           pt00007      10.95164       0.00010       0.12046       0.01715       0.00756       0.03669       0.00000       0.15223       0.00241       0.13460       0.00000       0.00000       0.00000       0.00000       0.00000       0.00000       0.00000       0.00000  
       4         4         1      2002    recall           pt00007      10.95164       0.00010       0.12046       0.01715       0.00756       0.03669       0.00000       0.15223       0.00241       0.13460       0.00000       0.00000       0.00000       0.00000       0.00000       0.00000       0.00000       0.00000  
       5         5         1      2002    recall           pt00007      10.95164       0.00010       0.12046       0.01715       0.00756       0.03669       0.00000       0.15223       0.00241       0.13460       0.00000       0.00000       0.00000       0.00000       0.00000       0.00000       0.00000       0.00000  
       6         6         1      2002    recall           pt00007      10.95164       0.00010       0.12046       0.01715       0.00756       0.03669       0.00000       0.15223       0.00241       0.13460       0.00000       0.00000       0.00000       0.00000       0.00000       0.00000       0.00000       0.00000  
       7         7         1      2002    recall           pt00007      10.95164       0.00010       0.12046       0.01715       0.00756       0.03669       0.00000       0.15223       0.00241       0.13460       0.00000       0.00000       0.00000       0.00000       0.00000       0.00000       0.00000       0.00000  
       8         8         1      2002    recall           pt00007      10.95164       0.00010       0.12046       0.01715       0.00756       0.03669       0.00000       0.15223       0.00241       0.13460       0.00000       0.00000       0.00000       0.00000       0.00000       0.00000       0.00000       0.00000  
       9         9         1      2002    recall           pt00007      10.95164       0.00010       0.12046       0.01715       0.00756       0.03669       0.00000       0.15223       0.00241       0.13460       0.00000       0.00000       0.00000       0.00000       0.00000       0.00000       0.00000       0.00000  
      10        10         1      2002    recall           pt00007      10.95164       0.00010       0.12046       0.01715       0.00756       0.03669       0.00000       0.15223       0.00241       0.13460       0.00000       0.00000       0.00000       0.00000       0.00000       0.00000       0.00000       0.00000  
      11        11         1      2002    recall           pt00007      10.95164       0.00010       0.12046       0.01715       0.00756       0.03669       0.00000       0.15223       0.00241       0.13460       0.00000       0.00000       0.00000       0.00000       0.00000       0.00000       0.00000       0.00000  
      12        12         1      2002    recall           pt00007      10.95164       0.00010       0.12046       0.01715       0.00756       0.03669       0.00000       0.15223       0.00241       0.13460       0.00000       0.00000       0.00000       0.00000       0.00000       0.00000       0.00000       0.00000  
       1         1         1      2003    recall           pt00007      10.95164       0.00024       0.04577       0.02179       0.06865       0.02179       0.00000       0.11442       0.00000       0.10897       0.00000       0.00000       0.00000       0.00000       0.00000       0.00000       0.00000       0.00000  
       2         2         1      2003    recall           pt00007      10.95164       0.00024       0.04577       0.02179       0.06865       0.02179       0.00000       0.11442       0.00000       0.10897       0.00000       0.00000       0.00000       0.00000       0.00000       0.00000       0.00000       0.00000  
       3         3         1      2003    recall           pt00007      10.95164       0.00024       0.04577       0.02179       0.06865       0.02179       0.00000       0.11442       0.00000       0.10897       0.00000       0.00000       0.00000       0.00000       0.00000       0.00000       0.00000       0.00000  
       4         4         1      2003    recall           pt00007      10.95164       0.00024       0.04577       0.02179       0.06865       0.02179       0.00000       0.11442       0.00000       0.10897       0.00000       0.00000       0.00000       0.00000       0.00000       0.00000       0.00000       0.00000  
       5         5         1      2003    recall           pt00007      10.95164       0.00024       0.04577       0.02179       0.06865       0.02179       0.00000       0.11442       0.00000       0.10897       0.00000       0.00000       0.00000       0.00000       0.00000       0.00000       0.00000       0.00000  
       6         6         1      2003    recall           pt00007      10.95164       0.00024       0.04577       0.02179       0.06865       0.02179       0.00000       0.11442       0.00000       0.10897       0.00000       0.00000       0.00000       0.00000       0.00000       0.00000       0.00000       0.00000  
       7         7         1      2003    recall           pt00007      10.95164       0.00024       0.04577       0.02179       0.06865       0.02179       0.00000       0.11442       0.00000       0.10897       0.00000       0.00000       0.00000       0.00000       0.00000       0.00000       0.00000       0.00000  
       8         8         1      2003    recall           pt00007      10.95164       0.00024       0.04577       0.02179       0.06865       0.02179       0.00000       0.11442       0.00000       0.10897       0.00000       0.00000       0.00000       0.00000       0.00000       0.00000       0.00000       0.00000  
       9         9         1      2003    recall           pt00007      10.95164       0.00024       0.04577       0.02179       0.06865       0.02179       0.00000       0.11442       0.00000       0.10897       0.00000       0.00000       0.00000       0.00000       0.00000       0.00000       0.00000       0.00000  
      10        10         1      2003    recall           pt00007      10.95164       0.00024       0.04577       0.02179       0.06865       0.02179       0.00000       0.11442       0.00000       0.10897       0.00000       0.00000       0.00000       0.00000       0.00000       0.00000       0.00000       0.00000  
      11        11         1      2003    recall           pt00007      10.95164       0.00024       0.04577       0.02179       0.06865       0.02179       0.00000       0.11442       0.00000       0.10897       0.00000       0.00000       0.00000       0.00000       0.00000       0.00000       0.00000       0.00000  
      12        12         1      2003    recall           pt00007      10.95164       0.00024       0.04577       0.02179       0.06865       0.02179       0.00000       0.11442       0.00000       0.10897       0.00000       0.00000       0.00000       0.00000       0.00000       0.00000       0.00000       0.00000  
       1         1         1      2004    recall           pt00007      10.95164       0.00012       0.05014       0.02387       0.07520       0.02387       0.00000       0.12534       0.00000       0.11937       0.00000       0.00000       0.00000       0.00000       0.00000       0.00000       0.00000       0.00000  
       2         2         1      2004    recall           pt00007      10.95164       0.00012       0.05014       0.02387       0.07520       0.02387       0.00000       0.12534       0.00000       0.11937       0.00000       0.00000       0.00000       0.00000       0.00000       0.00000       0.00000       0.00000  
       3         3         1      2004    recall           pt00007      10.95164       0.00012       0.05014       0.02387       0.07520       0.02387       0.00000       0.12534       0.00000       0.11937       0.00000       0.00000       0.00000       0.00000       0.00000       0.00000       0.00000       0.00000  
       4         4         1      2004    recall           pt00007      10.95164       0.00012       0.05014       0.02387       0.07520       0.02387       0.00000       0.12534       0.00000       0.11937       0.00000       0.00000       0.00000       0.00000       0.00000       0.00000       0.00000       0.00000  
       5         5         1      2004    recall           pt00007      10.95164       0.00012       0.05014       0.02387       0.07520       0.02387       0.00000       0.12534       0.00000       0.11937       0.00000       0.00000       0.00000       0.00000       0.00000       0.00000       0.00000       0.00000  
       6         6         1      2004    recall           pt00007      10.95164       0.00012       0.05014       0.02387       0.07520       0.02387       0.00000       0.12534       0.00000       0.11937       0.00000       0.00000       0.00000       0.00000       0.00000       0.00000       0.00000       0.00000  
       7         7         1      2004    recall           pt00007      10.95164       0.00012       0.05014       0.02387       0.07520       0.02387       0.00000       0.12534       0.00000       0.11937       0.00000       0.00000       0.00000       0.00000       0.00000       0.00000       0.00000       0.00000  
       8         8         1      2004    recall           pt00007      10.95164       0.00012       0.05014       0.02387       0.07520       0.02387       0.00000       0.12534       0.00000       0.11937       0.00000       0.00000       0.00000       0.00000       0.00000       0.00000       0.00000       0.00000  
       9         9         1      2004    recall           pt00007      10.95164       0.00012       0.05014       0.02387       0.07520       0.02387       0.00000       0.12534       0.00000       0.11937       0.00000       0.00000       0.00000       0.00000       0.00000       0.00000       0.00000       0.00000  
      10        10         1      2004    recall           pt00007      10.95164       0.00012       0.05014       0.02387       0.07520       0.02387       0.00000       0.12534       0.00000       0.11937       0.00000       0.00000       0.00000       0.00000       0.00000       0.00000       0.00000       0.00000  
      11        11         1      2004    recall           pt00007      10.95164       0.00012       0.05014       0.02387       0.07520       0.02387       0.00000       0.12534       0.00000       0.11937       0.00000       0.00000       0.00000       0.00000       0.00000       0.00000       0.00000       0.00000  
      12        12         1      2004    recall           pt00007      10.95164       0.00012       0.05014       0.02387       0.07520       0.02387       0.00000       0.12534       0.00000       0.11937       0.00000       0.00000       0.00000       0.00000       0.00000       0.00000       0.00000       0.00000  
       1         1         1      2005    recall           pt00007      10.95164       0.00020       0.06578       0.03132       0.09866       0.03132       0.00000       0.16444       0.00000       0.15661       0.00000       0.00000       0.00000       0.00000       0.00000       0.00000       0.00000       0.00000  
       2         2         1      2005    recall           pt00007      10.95164       0.00020       0.06578       0.03132       0.09866       0.03132       0.00000       0.16444       0.00000       0.15661       0.00000       0.00000       0.00000       0.00000       0.00000       0.00000       0.00000       0.00000  
       3         3         1      2005    recall           pt00007      10.95164       0.00020       0.06578       0.03132       0.09866       0.03132       0.00000       0.16444       0.00000       0.15661       0.00000       0.00000       0.00000       0.00000       0.00000       0.00000       0.00000       0.00000  
       4         4         1      2005    recall           pt00007      10.95164       0.00020       0.06578       0.03132       0.09866       0.03132       0.00000       0.16444       0.00000       0.15661       0.00000       0.00000       0.00000       0.00000       0.00000       0.00000       0.00000       0.00000  
       5         5         1      2005    recall           pt00007      10.95164       0.00020       0.06578       0.03132       0.09866       0.03132       0.00000       0.16444       0.00000       0.15661       0.00000       0.00000       0.00000       0.00000       0.00000       0.00000       0.00000       0.00000  
       6         6         1      2005    recall           pt00007      10.95164       0.00020       0.06578       0.03132       0.09866       0.03132       0.00000       0.16444       0.00000       0.15661       0.00000       0.00000       0.00000       0.00000       0.00000       0.00000       0.00000       0.00000  
       7         7         1      2005    recall           pt00007      10.95164       0.00020       0.06578       0.03132       0.09866       0.03132       0.00000       0.16444       0.00000       0.15661       0.00000       0.00000       0.00000       0.00000       0.00000       0.00000       0.00000       0.00000  
       8         8         1      2005    recall           pt00007      10.95164       0.00020       0.06578       0.03132       0.09866       0.03132       0.00000       0.16444       0.00000       0.15661       0.00000       0.00000       0.00000       0.00000       0.00000       0.00000       0.00000       0.00000  
       9         9         1      2005    recall           pt00007      10.95164       0.00020       0.06578       0.03132       0.09866       0.03132       0.00000       0.16444       0.00000       0.15661       0.00000       0.00000       0.00000       0.00000       0.00000       0.00000       0.00000       0.00000  
      10        10         1      2005    recall           pt00007      10.95164       0.00020       0.06578       0.03132       0.09866       0.03132       0.00000       0.16444       0.00000       0.15661       0.00000       0.00000       0.00000       0.00000       0.00000       0.00000       0.00000       0.00000  
      11        11         1      2005    recall           pt00007      10.95164       0.00020       0.06578       0.03132       0.09866       0.03132       0.00000       0.16444       0.00000       0.15661       0.00000       0.00000       0.00000       0.00000       0.00000       0.00000       0.00000       0.00000  
      12        12         1      2005    recall           pt00007      10.95164       0.00020       0.06578       0.03132       0.09866       0.03132       0.00000       0.16444       0.00000       0.15661       0.00000       0.00000       0.00000       0.00000       0.00000       0.00000       0.00000       0.00000  
       1         1         1      2006    recall           pt00007       8.21373       0.00009       0.03174       0.01511       0.04761       0.01511       0.00000       0.07934       0.00000       0.07557       0.00000       0.00000       0.00000       0.00000       0.00000       0.00000       0.00000       0.00000  
       2         2         1      2006    recall           pt00007       8.21373       0.00009       0.03174       0.01511       0.04761       0.01511       0.00000       0.07934       0.00000       0.07557       0.00000       0.00000       0.00000       0.00000       0.00000       0.00000       0.00000       0.00000  
       3         3         1      2006    recall           pt00007       8.21373       0.00009       0.03174       0.01511       0.04761       0.01511       0.00000       0.07934       0.00000       0.07557       0.00000       0.00000       0.00000       0.00000       0.00000       0.00000       0.00000       0.00000  
       4         4         1      2006    recall           pt00007       8.21373       0.00009       0.03174       0.01511       0.04761       0.01511       0.00000       0.07934       0.00000       0.07557       0.00000       0.00000       0.00000       0.00000       0.00000       0.00000       0.00000       0.00000  
       5         5         1      2006    recall           pt00007       8.21373       0.00009       0.03174       0.01511       0.04761       0.01511       0.00000       0.07934       0.00000       0.07557       0.00000       0.00000       0.00000       0.00000       0.00000       0.00000       0.00000       0.00000  
       6         6         1      2006    recall           pt00007       8.21373       0.00009       0.03174       0.01511       0.04761       0.01511       0.00000       0.07934       0.00000       0.07557       0.00000       0.00000       0.00000       0.00000       0.00000       0.00000       0.00000       0.00000  
       7         7         1      2006    recall           pt00007       8.21373       0.00009       0.03174       0.01511       0.04761       0.01511       0.00000       0.07934       0.00000       0.07557       0.00000       0.00000       0.00000       0.00000       0.00000       0.00000       0.00000       0.00000  
       8         8         1      2006    recall           pt00007       8.21373       0.00009       0.03174       0.01511       0.04761       0.01511       0.00000       0.07934       0.00000       0.07557       0.00000       0.00000       0.00000       0.00000       0.00000       0.00000       0.00000       0.00000  
       9         9         1      2006    recall           pt00007       8.21373       0.00009       0.03174       0.01511       0.04761       0.01511       0.00000       0.07934       0.00000       0.07557       0.00000       0.00000       0.00000       0.00000       0.00000       0.00000       0.00000       0.00000  
      10        10         1      2006    recall           pt00007       8.21373       0.00009       0.03174       0.01511       0.04761       0.01511       0.00000       0.07934       0.00000       0.07557       0.00000       0.00000       0.00000       0.00000       0.00000       0.00000       0.00000       0.00000  
      11        11         1      2006    recall           pt00007       8.21373       0.00009       0.03174       0.01511       0.04761       0.01511       0.00000       0.07934       0.00000       0.07557       0.00000       0.00000       0.00000       0.00000       0.00000       0.00000       0.00000       0.00000  
      12        12         1      2006    recall           pt00007       8.21373       0.00009       0.03174       0.01511       0.04761       0.01511       0.00000       0.07934       0.00000       0.07557       0.00000       0.00000       0.00000       0.00000       0.00000       0.00000       0.00000       0.00000  
       1         1         1      2007    recall           pt00007      35.59282       0.00028       0.14187       0.06756       0.21280       0.06756       0.00000       0.35466       0.00000       0.33778       0.00000       0.00000       0.00000       0.00000       0.00000       0.00000       0.00000       0.00000  
       2         2         1      2007    recall           pt00007      35.59282       0.00028       0.14187       0.06756       0.21280       0.06756       0.00000       0.35466       0.00000       0.33778       0.00000       0.00000       0.00000       0.00000       0.00000       0.00000       0.00000       0.00000  
       3         3         1      2007    recall           pt00007      35.59282       0.00028       0.14187       0.06756       0.21280       0.06756       0.00000       0.35466       0.00000       0.33778       0.00000       0.00000       0.00000       0.00000       0.00000       0.00000       0.00000       0.00000  
       4         4         1      2007    recall           pt00007      35.59282       0.00028       0.14187       0.06756       0.21280       0.06756       0.00000       0.35466       0.00000       0.33778       0.00000       0.00000       0.00000       0.00000       0.00000       0.00000       0.00000       0.00000  
       5         5         1      2007    recall           pt00007      35.59282       0.00028       0.14187       0.06756       0.21280       0.06756       0.00000       0.35466       0.00000       0.33778       0.00000       0.00000       0.00000       0.00000       0.00000       0.00000       0.00000       0.00000  
       6         6         1      2007    recall           pt00007      35.59282       0.00028       0.14187       0.06756       0.21280       0.06756       0.00000       0.35466       0.00000       0.33778       0.00000       0.00000       0.00000       0.00000       0.00000       0.00000       0.00000       0.00000  
       7         7         1      2007    recall           pt00007      35.59282       0.00028       0.14187       0.06756       0.21280       0.06756       0.00000       0.35466       0.00000       0.33778       0.00000       0.00000       0.00000       0.00000       0.00000       0.00000       0.00000       0.00000  
       8         8         1      2007    recall           pt00007      35.59282       0.00028       0.14187       0.06756       0.21280       0.06756       0.00000       0.35466       0.00000       0.33778       0.00000       0.00000       0.00000       0.00000       0.00000       0.00000       0.00000       0.00000  
       9         9         1      2007    recall           pt00007      35.59282       0.00028       0.14187       0.06756       0.21280       0.06756       0.00000       0.35466       0.00000       0.33778       0.00000       0.00000       0.00000       0.00000       0.00000       0.00000       0.00000       0.00000  
      10        10         1      2007    recall           pt00007      35.59282       0.00028       0.14187       0.06756       0.21280       0.06756       0.00000       0.35466       0.00000       0.33778       0.00000       0.00000       0.00000       0.00000       0.00000       0.00000       0.00000       0.00000  
      11        11         1      2007    recall           pt00007      35.59282       0.00028       0.14187       0.06756       0.21280       0.06756       0.00000       0.35466       0.00000       0.33778       0.00000       0.00000       0.00000       0.00000       0.00000       0.00000       0.00000       0.00000  
      12        12         1      2007    recall           pt00007      35.59282       0.00028       0.14187       0.06756       0.21280       0.06756       0.00000       0.35466       0.00000       0.33778       0.00000       0.00000       0.00000       0.00000       0.00000       0.00000       0.00000       0.00000  
       1         1         1      2008    recall           pt00007      21.90327       0.00053       0.44967       0.13251       0.01971       0.01029       0.00000       0.27817       0.00219       0.35702       0.00000       0.00000       0.00000       0.00000       0.00000       0.00000       0.00000       0.00000  
       2         2         1      2008    recall           pt00007      21.90327       0.00053       0.44967       0.13251       0.01971       0.01029       0.00000       0.27817       0.00219       0.35702       0.00000       0.00000       0.00000       0.00000       0.00000       0.00000       0.00000       0.00000  
       3         3         1      2008    recall           pt00007      21.90327       0.00053       0.44967       0.13251       0.01971       0.01029       0.00000       0.27817       0.00219       0.35702       0.00000       0.00000       0.00000       0.00000       0.00000       0.00000       0.00000       0.00000  
       4         4         1      2008    recall           pt00007      21.90327       0.00053       0.44967       0.13251       0.01971       0.01029       0.00000       0.27817       0.00219       0.35702       0.00000       0.00000       0.00000       0.00000       0.00000       0.00000       0.00000       0.00000  
       5         5         1      2008    recall           pt00007      21.90327       0.00053       0.44967       0.13251       0.01971       0.01029       0.00000       0.27817       0.00219       0.35702       0.00000       0.00000       0.00000       0.00000       0.00000       0.00000       0.00000       0.00000  
       6         6         1      2008    recall           pt00007      21.90327       0.00053       0.44967       0.13251       0.01971       0.01029       0.00000       0.27817       0.00219       0.35702       0.00000       0.00000       0.00000       0.00000       0.00000       0.00000       0.00000       0.00000  
       7         7         1      2008    recall           pt00007      21.90327       0.00053       0.44967       0.13251       0.01971       0.01029       0.00000       0.27817       0.00219       0.35702       0.00000       0.00000       0.00000       0.00000       0.00000       0.00000       0.00000       0.00000  
       8         8         1      2008    recall           pt00007      21.90327       0.00053       0.44967       0.13251       0.01971       0.01029       0.00000       0.27817       0.00219       0.35702       0.00000       0.00000       0.00000       0.00000       0.00000       0.00000       0.00000       0.00000  
       9         9         1      2008    recall           pt00007      21.90327       0.00053       0.44967       0.13251       0.01971       0.01029       0.00000       0.27817       0.00219       0.35702       0.00000       0.00000       0.00000       0.00000       0.00000       0.00000       0.00000       0.00000  
      10        10         1      2008    recall           pt00007      21.90327       0.00053       0.44967       0.13251       0.01971       0.01029       0.00000       0.27817       0.00219       0.35702       0.00000       0.00000       0.00000       0.00000       0.00000       0.00000       0.00000       0.00000  
      11        11         1      2008    recall           pt00007      21.90327       0.00053       0.44967       0.13251       0.01971       0.01029       0.00000       0.27817       0.00219       0.35702       0.00000       0.00000       0.00000       0.00000       0.00000       0.00000       0.00000       0.00000  
      12        12         1      2008    recall           pt00007      21.90327       0.00053       0.44967       0.13251       0.01971       0.01029       0.00000       0.27817       0.00219       0.35702       0.00000       0.00000       0.00000       0.00000       0.00000       0.00000       0.00000       0.00000  
       1         1         1      2009    recall           pt00007      35.59282       0.00039       0.22843       0.06236       0.00534       0.03986       0.00000       0.30040       0.00249       0.25556       0.00000       0.00000       0.00000       0.00000       0.00000       0.00000       0.00000       0.00000  
       2         2         1      2009    recall           pt00007      35.59282       0.00039       0.22843       0.06236       0.00534       0.03986       0.00000       0.30040       0.00249       0.25556       0.00000       0.00000       0.00000       0.00000       0.00000       0.00000       0.00000       0.00000  
       3         3         1      2009    recall           pt00007      35.59282       0.00039       0.22843       0.06236       0.00534       0.03986       0.00000       0.30040       0.00249       0.25556       0.00000       0.00000       0.00000       0.00000       0.00000       0.00000       0.00000       0.00000  
       4         4         1      2009    recall           pt00007      35.59282       0.00039       0.22843       0.06236       0.00534       0.03986       0.00000       0.30040       0.00249       0.25556       0.00000       0.00000       0.00000       0.00000       0.00000       0.00000       0.00000       0.00000  
       5         5         1      2009    recall           pt00007      35.59282       0.00039       0.22843       0.06236       0.00534       0.03986       0.00000       0.30040       0.00249       0.25556       0.00000       0.00000       0.00000       0.00000       0.00000       0.00000       0.00000       0.00000  
       6         6         1      2009    recall           pt00007      35.59282       0.00039       0.22843       0.06236       0.00534       0.03986       0.00000       0.30040       0.00249       0.25556       0.00000       0.00000       0.00000       0.00000       0.00000       0.00000       0.00000       0.00000  
       7         7         1      2009    recall           pt00007      35.59282       0.00039       0.22843       0.06236       0.00534       0.03986       0.00000       0.30040       0.00249       0.25556       0.00000       0.00000       0.00000       0.00000       0.00000       0.00000       0.00000       0.00000  
       8         8         1      2009    recall           pt00007      35.59282       0.00039       0.22843       0.06236       0.00534       0.03986       0.00000       0.30040       0.00249       0.25556       0.00000       0.00000       0.00000       0.00000       0.00000       0.00000       0.00000       0.00000  
       9         9         1      2009    recall           pt00007      35.59282       0.00039       0.22843       0.06236       0.00534       0.03986       0.00000       0.30040       0.00249       0.25556       0.00000       0.00000       0.00000       0.00000       0.00000       0.00000       0.00000       0.00000  
      10        10         1      2009    recall           pt00007      35.59282       0.00039       0.22843       0.06236       0.00534       0.03986       0.00000       0.30040       0.00249       0.25556       0.00000       0.00000       0.00000       0.00000       0.00000       0.00000       0.00000       0.00000  
      11        11         1      2009    recall           pt00007      35.59282       0.00039       0.22843       0.06236       0.00534       0.03986       0.00000       0.30040       0.00249       0.25556       0.00000       0.00000       0.00000       0.00000       0.00000       0.00000       0.00000       0.00000  
      12        12         1      2009    recall           pt00007      35.59282       0.00039       0.22843       0.06236       0.00534       0.03986       0.00000       0.30040       0.00249       0.25556       0.00000       0.00000       0.00000       0.00000       0.00000       0.00000       0.00000       0.00000  
       1         1         1      2010    recall           pt00007      30.11700       0.00014       0.16570       0.07891       0.24856       0.07891       0.00000       0.41426       0.00000       0.39453       0.00000       0.00000       0.00000       0.00000       0.00000       0.00000       0.00000       0.00000  
       2         2         1      2010    recall           pt00007      30.11700       0.00014       0.16570       0.07891       0.24856       0.07891       0.00000       0.41426       0.00000       0.39453       0.00000       0.00000       0.00000       0.00000       0.00000       0.00000       0.00000       0.00000  
       3         3         1      2010    recall           pt00007      30.11700       0.00014       0.16570       0.07891       0.24856       0.07891       0.00000       0.41426       0.00000       0.39453       0.00000       0.00000       0.00000       0.00000       0.00000       0.00000       0.00000       0.00000  
       4         4         1      2010    recall           pt00007      30.11700       0.00014       0.16570       0.07891       0.24856       0.07891       0.00000       0.41426       0.00000       0.39453       0.00000       0.00000       0.00000       0.00000       0.00000       0.00000       0.00000       0.00000  
       5         5         1      2010    recall           pt00007      30.11700       0.00014       0.16570       0.07891       0.24856       0.07891       0.00000       0.41426       0.00000       0.39453       0.00000       0.00000       0.00000       0.00000       0.00000       0.00000       0.00000       0.00000  
       6         6         1      2010    recall           pt00007      30.11700       0.00014       0.16570       0.07891       0.24856       0.07891       0.00000       0.41426       0.00000       0.39453       0.00000       0.00000       0.00000       0.00000       0.00000       0.00000       0.00000       0.00000  
       7         7         1      2010    recall           pt00007      30.11700       0.00014       0.16570       0.07891       0.24856       0.07891       0.00000       0.41426       0.00000       0.39453       0.00000       0.00000       0.00000       0.00000       0.00000       0.00000       0.00000       0.00000  
       8         8         1      2010    recall           pt00007      30.11700       0.00014       0.16570       0.07891       0.24856       0.07891       0.00000       0.41426       0.00000       0.39453       0.00000       0.00000       0.00000       0.00000       0.00000       0.00000       0.00000       0.00000  
       9         9         1      2010    recall           pt00007      30.11700       0.00014       0.16570       0.07891       0.24856       0.07891       0.00000       0.41426       0.00000       0.39453       0.00000       0.00000       0.00000       0.00000       0.00000       0.00000       0.00000       0.00000  
      10        10         1      2010    recall           pt00007      30.11700       0.00014       0.16570       0.07891       0.24856       0.07891       0.00000       0.41426       0.00000       0.39453       0.00000       0.00000       0.00000       0.00000       0.00000       0.00000       0.00000       0.00000  
      11        11         1      2010    recall           pt00007      30.11700       0.00014       0.16570       0.07891       0.24856       0.07891       0.00000       0.41426       0.00000       0.39453       0.00000       0.00000       0.00000       0.00000       0.00000       0.00000       0.00000       0.00000  
      12        12         1      2010    recall           pt00007      30.11700       0.00014       0.16570       0.07891       0.24856       0.07891       0.00000       0.41426       0.00000       0.39453       0.00000       0.00000       0.00000       0.00000       0.00000       0.00000       0.00000       0.00000  
       1         1         1      2011    recall           pt00007      22.99844       0.00025       0.00000       0.04987       0.05520       0.04987       0.00000       0.55196       0.00577       0.24937       0.00000       0.00000       0.00000       0.00000       0.00000       0.00000       0.00000       0.00000  
       2         2         1      2011    recall           pt00007      22.99844       0.00025       0.00000       0.04987       0.05520       0.04987       0.00000       0.55196       0.00577       0.24937       0.00000       0.00000       0.00000       0.00000       0.00000       0.00000       0.00000       0.00000  
       3         3         1      2011    recall           pt00007      22.99844       0.00025       0.00000       0.04987       0.05520       0.04987       0.00000       0.55196       0.00577       0.24937       0.00000       0.00000       0.00000       0.00000       0.00000       0.00000       0.00000       0.00000  
       4         4         1      2011    recall           pt00007      22.99844       0.00025       0.00000       0.04987       0.05520       0.04987       0.00000       0.55196       0.00577       0.24937       0.00000       0.00000       0.00000       0.00000       0.00000       0.00000       0.00000       0.00000  
       5         5         1      2011    recall           pt00007      22.99844       0.00025       0.00000       0.04987       0.05520       0.04987       0.00000       0.55196       0.00577       0.24937       0.00000       0.00000       0.00000       0.00000       0.00000       0.00000       0.00000       0.00000  
       6         6         1      2011    recall           pt00007      22.99844       0.00025       0.00000       0.04987       0.05520       0.04987       0.00000       0.55196       0.00577       0.24937       0.00000       0.00000       0.00000       0.00000       0.00000       0.00000       0.00000       0.00000  
       7         7         1      2011    recall           pt00007      22.99844       0.00025       0.00000       0.04987       0.05520       0.04987       0.00000       0.55196       0.00577       0.24937       0.00000       0.00000       0.00000       0.00000       0.00000       0.00000       0.00000       0.00000  
       8         8         1      2011    recall           pt00007      22.99844       0.00025       0.00000       0.04987       0.05520       0.04987       0.00000       0.55196       0.00577       0.24937       0.00000       0.00000       0.00000       0.00000       0.00000       0.00000       0.00000       0.00000  
       9         9         1      2011    recall           pt00007      22.99844       0.00025       0.00000       0.04987       0.05520       0.04987       0.00000       0.55196       0.00577       0.24937       0.00000       0.00000       0.00000       0.00000       0.00000       0.00000       0.00000       0.00000  
      10        10         1      2011    recall           pt00007      22.99844       0.00025       0.00000       0.04987       0.05520       0.04987       0.00000       0.55196       0.00577       0.24937       0.00000       0.00000       0.00000       0.00000       0.00000       0.00000       0.00000       0.00000  
      11        11         1      2011    recall           pt00007      22.99844       0.00025       0.00000       0.04987       0.05520       0.04987       0.00000       0.55196       0.00577       0.24937       0.00000       0.00000       0.00000       0.00000       0.00000       0.00000       0.00000       0.00000  
      12        12         1      2011    recall           pt00007      22.99844       0.00025       0.00000       0.04987       0.05520       0.04987       0.00000       0.55196       0.00577       0.24937       0.00000       0.00000       0.00000       0.00000       0.00000       0.00000       0.00000       0.00000  
       1         1         1      2012    recall           pt00007      27.92667       0.00000       0.11741       0.05591       0.17611       0.05591       0.00000       0.29352       0.00000       0.27955       0.00000       0.00000       0.00000       0.00000       0.00000       0.00000       0.00000       0.00000  
       2         2         1      2012    recall           pt00007      27.92667       0.00000       0.11741       0.05591       0.17611       0.05591       0.00000       0.29352       0.00000       0.27955       0.00000       0.00000       0.00000       0.00000       0.00000       0.00000       0.00000       0.00000  
       3         3         1      2012    recall           pt00007      27.92667       0.00000       0.11741       0.05591       0.17611       0.05591       0.00000       0.29352       0.00000       0.27955       0.00000       0.00000       0.00000       0.00000       0.00000       0.00000       0.00000       0.00000  
       4         4         1      2012    recall           pt00007      27.92667       0.00000       0.11741       0.05591       0.17611       0.05591       0.00000       0.29352       0.00000       0.27955       0.00000       0.00000       0.00000       0.00000       0.00000       0.00000       0.00000       0.00000  
       5         5         1      2012    recall           pt00007      27.92667       0.00000       0.11741       0.05591       0.17611       0.05591       0.00000       0.29352       0.00000       0.27955       0.00000       0.00000       0.00000       0.00000       0.00000       0.00000       0.00000       0.00000  
       6         6         1      2012    recall           pt00007      27.92667       0.00000       0.11741       0.05591       0.17611       0.05591       0.00000       0.29352       0.00000       0.27955       0.00000       0.00000       0.00000       0.00000       0.00000       0.00000       0.00000       0.00000  
       7         7         1      2012    recall           pt00007      27.92667       0.00000       0.11741       0.05591       0.17611       0.05591       0.00000       0.29352       0.00000       0.27955       0.00000       0.00000       0.00000       0.00000       0.00000       0.00000       0.00000       0.00000  
       8         8         1      2012    recall           pt00007      27.92667       0.00000       0.11741       0.05591       0.17611       0.05591       0.00000       0.29352       0.00000       0.27955       0.00000       0.00000       0.00000       0.00000       0.00000       0.00000       0.00000       0.00000  
       9         9         1      2012    recall           pt00007      27.92667       0.00000       0.11741       0.05591       0.17611       0.05591       0.00000       0.29352       0.00000       0.27955       0.00000       0.00000       0.00000       0.00000       0.00000       0.00000       0.00000       0.00000  
      10        10         1      2012    recall           pt00007      27.92667       0.00000       0.11741       0.05591       0.17611       0.05591       0.00000       0.29352       0.00000       0.27955       0.00000       0.00000       0.00000       0.00000       0.00000       0.00000       0.00000       0.00000  
      11        11         1      2012    recall           pt00007      27.92667       0.00000       0.11741       0.05591       0.17611       0.05591       0.00000       0.29352       0.00000       0.27955       0.00000       0.00000       0.00000       0.00000       0.00000       0.00000       0.00000       0.00000  
      12        12         1      2012    recall           pt00007      27.92667       0.00000       0.11741       0.05591       0.17611       0.05591       0.00000       0.29352       0.00000       0.27955       0.00000       0.00000       0.00000       0.00000       0.00000       0.00000       0.00000       0.00000  
       1         1         1      2013    recall           pt00007      10.67785       0.00000       0.01886       0.00393       0.01886       0.00393       0.00000       0.02515       0.00000       0.07859       0.00000       0.00000       0.00000       0.00000       0.00000       0.00000       0.00000       0.00000  
       2         2         1      2013    recall           pt00007      10.67785       0.00000       0.01886       0.00393       0.01886       0.00393       0.00000       0.02515       0.00000       0.07859       0.00000       0.00000       0.00000       0.00000       0.00000       0.00000       0.00000       0.00000  
       3         3         1      2013    recall           pt00007      10.67785       0.00000       0.01886       0.00393       0.01886       0.00393       0.00000       0.02515       0.00000       0.07859       0.00000       0.00000       0.00000       0.00000       0.00000       0.00000       0.00000       0.00000  
       4         4         1      2013    recall           pt00007      10.67785       0.00000       0.01886       0.00393       0.01886       0.00393       0.00000       0.02515       0.00000       0.07859       0.00000       0.00000       0.00000       0.00000       0.00000       0.00000       0.00000       0.00000  
       5         5         1      2013    recall           pt00007      10.67785       0.00000       0.01886       0.00393       0.01886       0.00393       0.00000       0.02515       0.00000       0.07859       0.00000       0.00000       0.00000       0.00000       0.00000       0.00000       0.00000       0.00000  
       6         6         1      2013    recall           pt00007      10.67785       0.00000       0.01886       0.00393       0.01886       0.00393       0.00000       0.02515       0.00000       0.07859       0.00000       0.00000       0.00000       0.00000       0.00000       0.00000       0.00000       0.00000  
       7         7         1      2013    recall           pt00007      10.67785       0.00000       0.01886       0.00393       0.01886       0.00393       0.00000       0.02515       0.00000       0.07859       0.00000       0.00000       0.00000       0.00000       0.00000       0.00000       0.00000       0.00000  
       8         8         1      2013    recall           pt00007      10.67785       0.00000       0.01886       0.00393       0.01886       0.00393       0.00000       0.02515       0.00000       0.07859       0.00000       0.00000       0.00000       0.00000       0.00000       0.00000       0.00000       0.00000  
       9         9         1      2013    recall           pt00007      10.67785       0.00000       0.01886       0.00393       0.01886       0.00393       0.00000       0.02515       0.00000       0.07859       0.00000       0.00000       0.00000       0.00000       0.00000       0.00000       0.00000       0.00000  
      10        10         1      2013    recall           pt00007      10.67785       0.00000       0.01886       0.00393       0.01886       0.00393       0.00000       0.02515       0.00000       0.07859       0.00000       0.00000       0.00000       0.00000       0.00000       0.00000       0.00000       0.00000  
      11        11         1      2013    recall           pt00007      10.67785       0.00000       0.01886       0.00393       0.01886       0.00393       0.00000       0.02515       0.00000       0.07859       0.00000       0.00000       0.00000       0.00000       0.00000       0.00000       0.00000       0.00000  
      12        12         1      2013    recall           pt00007      10.67785       0.00000       0.01886       0.00393       0.01886       0.00393       0.00000       0.02515       0.00000       0.07859       0.00000       0.00000       0.00000       0.00000       0.00000       0.00000       0.00000       0.00000  
       1         1         1      2014    recall           pt00007       9.03510       0.00000       0.00817       0.00170       0.00817       0.00170       0.00000       0.01090       0.00000       0.03406       0.00000       0.00000       0.00000       0.00000       0.00000       0.00000       0.00000       0.00000  
       2         2         1      2014    recall           pt00007       9.03510       0.00000       0.00817       0.00170       0.00817       0.00170       0.00000       0.01090       0.00000       0.03406       0.00000       0.00000       0.00000       0.00000       0.00000       0.00000       0.00000       0.00000  
       3         3         1      2014    recall           pt00007       9.03510       0.00000       0.00817       0.00170       0.00817       0.00170       0.00000       0.01090       0.00000       0.03406       0.00000       0.00000       0.00000       0.00000       0.00000       0.00000       0.00000       0.00000  
       4         4         1      2014    recall           pt00007       9.03510       0.00000       0.00817       0.00170       0.00817       0.00170       0.00000       0.01090       0.00000       0.03406       0.00000       0.00000       0.00000       0.00000       0.00000       0.00000       0.00000       0.00000  
       5         5         1      2014    recall           pt00007       9.03510       0.00000       0.00817       0.00170       0.00817       0.00170       0.00000       0.01090       0.00000       0.03406       0.00000       0.00000       0.00000       0.00000       0.00000       0.00000       0.00000       0.00000  
       6         6         1      2014    recall           pt00007       9.03510       0.00000       0.00817       0.00170       0.00817       0.00170       0.00000       0.01090       0.00000       0.03406       0.00000       0.00000       0.00000       0.00000       0.00000       0.00000       0.00000       0.00000  
       7         7         1      2014    recall           pt00007       9.03510       0.00000       0.00817       0.00170       0.00817       0.00170       0.00000       0.01090       0.00000       0.03406       0.00000       0.00000       0.00000       0.00000       0.00000       0.00000       0.00000       0.00000  
       8         8         1      2014    recall           pt00007       9.03510       0.00000       0.00817       0.00170       0.00817       0.00170       0.00000       0.01090       0.00000       0.03406       0.00000       0.00000       0.00000       0.00000       0.00000       0.00000       0.00000       0.00000  
[...]
      11        11         1      2014    recall           pt00007       9.03510       0.00000       0.00817       0.00170       0.00817       0.00170       0.00000       0.01090       0.00000       0.03406       0.00000       0.00000       0.00000       0.00000       0.00000       0.00000       0.00000       0.00000  
      12        12         1      2014    recall           pt00007       9.03510       0.00000       0.00817       0.00170       0.00817       0.00170       0.00000       0.01090       0.00000       0.03406       0.00000       0.00000       0.00000       0.00000       0.00000       0.00000       0.00000       0.00000  
       1         1         1      2015    recall           pt00007       9.30889       0.00000       0.01611       0.00336       0.01611       0.00336       0.00000       0.02148       0.00000       0.06712       0.00000       0.00000       0.00000       0.00000       0.00000       0.00000       0.00000       0.00000  
       2         2         1      2015    recall           pt00007       9.30889       0.00000       0.01611       0.00336       0.01611       0.00336       0.00000       0.02148       0.00000       0.06712       0.00000       0.00000       0.00000       0.00000       0.00000       0.00000       0.00000       0.00000  
       3         3         1      2015    recall           pt00007       9.30889       0.00000       0.01611       0.00336       0.01611       0.00336       0.00000       0.02148       0.00000       0.06712       0.00000       0.00000       0.00000       0.00000       0.00000       0.00000       0.00000       0.00000  
       4         4         1      2015    recall           pt00007       9.30889       0.00000       0.01611       0.00336       0.01611       0.00336       0.00000       0.02148       0.00000       0.06712       0.00000       0.00000       0.00000       0.00000       0.00000       0.00000       0.00000       0.00000  
       5         5         1      2015    recall           pt00007       9.30889       0.00000       0.01611       0.00336       0.01611       0.00336       0.00000       0.02148       0.00000       0.06712       0.00000       0.00000       0.00000       0.00000       0.00000       0.00000       0.00000       0.00000  
       6         6         1      2015    recall           pt00007       9.30889       0.00000       0.01611       0.00336       0.01611       0.00336       0.00000       0.02148       0.00000       0.06712       0.00000       0.00000       0.00000       0.00000       0.00000       0.00000       0.00000       0.00000  
       7         7         1      2015    recall           pt00007       9.30889       0.00000       0.01611       0.00336       0.01611       0.00336       0.00000       0.02148       0.00000       0.06712       0.00000       0.00000       0.00000       0.00000       0.00000       0.00000       0.00000       0.00000  
       8         8         1      2015    recall           pt00007       9.30889       0.00000       0.01611       0.00336       0.01611       0.00336       0.00000       0.02148       0.00000       0.06712       0.00000       0.00000       0.00000       0.00000       0.00000       0.00000       0.00000       0.00000  
       9         9         1      2015    recall           pt00007       9.30889       0.00000       0.01611       0.00336       0.01611       0.00336       0.00000       0.02148       0.00000       0.06712       0.00000       0.00000       0.00000       0.00000       0.00000       0.00000       0.00000       0.00000  
      10        10         1      2015    recall           pt00007       9.30889       0.00000       0.01611       0.00336       0.01611       0.00336       0.00000       0.02148       0.00000       0.06712       0.00000       0.00000       0.00000       0.00000       0.00000       0.00000       0.00000       0.00000  
      11        11         1      2015    recall           pt00007       9.30889       0.00000       0.01611       0.00336       0.01611       0.00336       0.00000       0.02148       0.00000       0.06712       0.00000       0.00000       0.00000       0.00000       0.00000       0.00000       0.00000       0.00000  
      12        12         1      2015    recall           pt00007       9.30889       0.00000       0.01611       0.00336       0.01611       0.00336       0.00000       0.02148       0.00000       0.06712       0.00000       0.00000       0.00000       0.00000       0.00000       0.00000       0.00000       0.00000  
       1         1         1      2016    recall           pt00007       8.21373       0.00000       0.01301       0.00271       0.01301       0.00271       0.00000       0.01735       0.00000       0.05421       0.00000       0.00000       0.00000       0.00000       0.00000       0.00000       0.00000       0.00000  
       2         2         1      2016    recall           pt00007       8.21373       0.00000       0.01301       0.00271       0.01301       0.00271       0.00000       0.01735       0.00000       0.05421       0.00000       0.00000       0.00000       0.00000       0.00000       0.00000       0.00000       0.00000  
       3         3         1      2016    recall           pt00007       8.21373       0.00000       0.01301       0.00271       0.01301       0.00271       0.00000       0.01735       0.00000       0.05421       0.00000       0.00000       0.00000       0.00000       0.00000       0.00000       0.00000       0.00000  
       4         4         1      2016    recall           pt00007       8.21373       0.00000       0.01301       0.00271       0.01301       0.00271       0.00000       0.01735       0.00000       0.05421       0.00000       0.00000       0.00000       0.00000       0.00000       0.00000       0.00000       0.00000  
       5         5         1      2016    recall           pt00007       8.21373       0.00000       0.01301       0.00271       0.01301       0.00271       0.00000       0.01735       0.00000       0.05421       0.00000       0.00000       0.00000       0.00000       0.00000       0.00000       0.00000       0.00000  
       6         6         1      2016    recall           pt00007       8.21373       0.00000       0.01301       0.00271       0.01301       0.00271       0.00000       0.01735       0.00000       0.05421       0.00000       0.00000       0.00000       0.00000       0.00000       0.00000       0.00000       0.00000  
       7         7         1      2016    recall           pt00007       8.21373       0.00000       0.01301       0.00271       0.01301       0.00271       0.00000       0.01735       0.00000       0.05421       0.00000       0.00000       0.00000       0.00000       0.00000       0.00000       0.00000       0.00000  
       8         8         1      2016    recall           pt00007       8.21373       0.00000       0.01301       0.00271       0.01301       0.00271       0.00000       0.01735       0.00000       0.05421       0.00000       0.00000       0.00000       0.00000       0.00000       0.00000       0.00000       0.00000  
       9         9         1      2016    recall           pt00007       8.21373       0.00000       0.01301       0.00271       0.01301       0.00271       0.00000       0.01735       0.00000       0.05421       0.00000       0.00000       0.00000       0.00000       0.00000       0.00000       0.00000       0.00000  
      10        10         1      2016    recall           pt00007       8.21373       0.00000       0.01301       0.00271       0.01301       0.00271       0.00000       0.01735       0.00000       0.05421       0.00000       0.00000       0.00000       0.00000       0.00000       0.00000       0.00000       0.00000  
      11        11         1      2016    recall           pt00007       8.21373       0.00000       0.01301       0.00271       0.01301       0.00271       0.00000       0.01735       0.00000       0.05421       0.00000       0.00000       0.00000       0.00000       0.00000       0.00000       0.00000       0.00000  
      12        12         1      2016    recall           pt00007       8.21373       0.00000       0.01301       0.00271       0.01301       0.00271       0.00000       0.01735       0.00000       0.05421       0.00000       0.00000       0.00000       0.00000       0.00000       0.00000       0.00000       0.00000  
       1         1         1      2017    recall           pt00007       8.21373       0.00000       0.01061       0.00221       0.01061       0.00221       0.00000       0.01414       0.00000       0.04419       0.00000       0.00000       0.00000       0.00000       0.00000       0.00000       0.00000       0.00000  
       2         2         1      2017    recall           pt00007       8.21373       0.00000       0.01061       0.00221       0.01061       0.00221       0.00000       0.01414       0.00000       0.04419       0.00000       0.00000       0.00000       0.00000       0.00000       0.00000       0.00000       0.00000  
       3         3         1      2017    recall           pt00007       8.21373       0.00000       0.01061       0.00221       0.01061       0.00221       0.00000       0.01414       0.00000       0.04419       0.00000       0.00000       0.00000       0.00000       0.00000       0.00000       0.00000       0.00000  
       4         4         1      2017    recall           pt00007       8.21373       0.00000       0.01061       0.00221       0.01061       0.00221       0.00000       0.01414       0.00000       0.04419       0.00000       0.00000       0.00000       0.00000       0.00000       0.00000       0.00000       0.00000  
       5         5         1      2017    recall           pt00007       8.21373       0.00000       0.01061       0.00221       0.01061       0.00221       0.00000       0.01414       0.00000       0.04419       0.00000       0.00000       0.00000       0.00000       0.00000       0.00000       0.00000       0.00000  
       6         6         1      2017    recall           pt00007       8.21373       0.00000       0.01061       0.00221       0.01061       0.00221       0.00000       0.01414       0.00000       0.04419       0.00000       0.00000       0.00000       0.00000       0.00000       0.00000       0.00000       0.00000  
       7         7         1      2017    recall           pt00007       8.21373       0.00000       0.01061       0.00221       0.01061       0.00221       0.00000       0.01414       0.00000       0.04419       0.00000       0.00000       0.00000       0.00000       0.00000       0.00000       0.00000       0.00000  
       8         8         1      2017    recall           pt00007       8.21373       0.00000       0.01061       0.00221       0.01061       0.00221       0.00000       0.01414       0.00000       0.04419       0.00000       0.00000       0.00000       0.00000       0.00000       0.00000       0.00000       0.00000  
       9         9         1      2017    recall           pt00007       8.21373       0.00000       0.01061       0.00221       0.01061       0.00221       0.00000       0.01414       0.00000       0.04419       0.00000       0.00000       0.00000       0.00000       0.00000       0.00000       0.00000       0.00000  
      10        10         1      2017    recall           pt00007       8.21373       0.00000       0.01061       0.00221       0.01061       0.00221       0.00000       0.01414       0.00000       0.04419       0.00000       0.00000       0.00000       0.00000       0.00000       0.00000       0.00000       0.00000  
      11        11         1      2017    recall           pt00007       8.21373       0.00000       0.01061       0.00221       0.01061       0.00221       0.00000       0.01414       0.00000       0.04419       0.00000       0.00000       0.00000       0.00000       0.00000       0.00000       0.00000       0.00000  
      12        12         1      2017    recall           pt00007       8.21373       0.00000       0.01061       0.00221       0.01061       0.00221       0.00000       0.01414       0.00000       0.04419       0.00000       0.00000       0.00000       0.00000       0.00000       0.00000       0.00000       0.00000  
       1         1         1      2018    recall           pt00007       8.21373       0.00000       0.00900       0.00188       0.00900       0.00188       0.00000       0.01200       0.00000       0.03751       0.00000       0.00000       0.00000       0.00000       0.00000       0.00000       0.00000       0.00000  
       2         2         1      2018    recall           pt00007       8.21373       0.00000       0.00900       0.00188       0.00900       0.00188       0.00000       0.01200       0.00000       0.03751       0.00000       0.00000       0.00000       0.00000       0.00000       0.00000       0.00000       0.00000  
       3         3         1      2018    recall           pt00007       8.21373       0.00000       0.00900       0.00188       0.00900       0.00188       0.00000       0.01200       0.00000       0.03751       0.00000       0.00000       0.00000       0.00000       0.00000       0.00000       0.00000       0.00000  
       4         4         1      2018    recall           pt00007       8.21373       0.00000       0.00900       0.00188       0.00900       0.00188       0.00000       0.01200       0.00000       0.03751       0.00000       0.00000       0.00000       0.00000       0.00000       0.00000       0.00000       0.00000  
       5         5         1      2018    recall           pt00007       8.21373       0.00000       0.00900       0.00188       0.00900       0.00188       0.00000       0.01200       0.00000       0.03751       0.00000       0.00000       0.00000       0.00000       0.00000       0.00000       0.00000       0.00000  
       6         6         1      2018    recall           pt00007       8.21373       0.00000       0.00900       0.00188       0.00900       0.00188       0.00000       0.01200       0.00000       0.03751       0.00000       0.00000       0.00000       0.00000       0.00000       0.00000       0.00000       0.00000  
       7         7         1      2018    recall           pt00007       8.21373       0.00000       0.00900       0.00188       0.00900       0.00188       0.00000       0.01200       0.00000       0.03751       0.00000       0.00000       0.00000       0.00000       0.00000       0.00000       0.00000       0.00000  
       8         8         1      2018    recall           pt00007       8.21373       0.00000       0.00900       0.00188       0.00900       0.00188       0.00000       0.01200       0.00000       0.03751       0.00000       0.00000       0.00000       0.00000       0.00000       0.00000       0.00000       0.00000  
       9         9         1      2018    recall           pt00007       8.21373       0.00000       0.00900       0.00188       0.00900       0.00188       0.00000       0.01200       0.00000       0.03751       0.00000       0.00000       0.00000       0.00000       0.00000       0.00000       0.00000       0.00000  
      10        10         1      2018    recall           pt00007       8.21373       0.00000       0.00900       0.00188       0.00900       0.00188       0.00000       0.01200       0.00000       0.03751       0.00000       0.00000       0.00000       0.00000       0.00000       0.00000       0.00000       0.00000  
      11        11         1      2018    recall           pt00007       8.21373       0.00000       0.00900       0.00188       0.00900       0.00188       0.00000       0.01200       0.00000       0.03751       0.00000       0.00000       0.00000       0.00000       0.00000       0.00000       0.00000       0.00000  
      12        12         1      2018    recall           pt00007       8.21373       0.00000       0.00900       0.00188       0.00900       0.00188       0.00000       0.01200       0.00000       0.03751       0.00000       0.00000       0.00000       0.00000       0.00000       0.00000       0.00000       0.00000  
       1         1         1      2019    recall           pt00007       8.63537       0.00000       0.01492       0.00311       0.01492       0.00311       0.00000       0.01989       0.00000       0.06215       0.00000       0.00000       0.00000       0.00000       0.00000       0.00000       0.00000       0.00000  
       2         2         1      2019    recall           pt00007       8.63537       0.00000       0.01492       0.00311       0.01492       0.00311       0.00000       0.01989       0.00000       0.06215       0.00000       0.00000       0.00000       0.00000       0.00000       0.00000       0.00000       0.00000  
       3         3         1      2019    recall           pt00007       8.63537       0.00000       0.01492       0.00311       0.01492       0.00311       0.00000       0.01989       0.00000       0.06215       0.00000       0.00000       0.00000       0.00000       0.00000       0.00000       0.00000       0.00000  
       4         4         1      2019    recall           pt00007       8.63537       0.00000       0.01492       0.00311       0.01492       0.00311       0.00000       0.01989       0.00000       0.06215       0.00000       0.00000       0.00000       0.00000       0.00000       0.00000       0.00000       0.00000  
       5         5         1      2019    recall           pt00007       8.63537       0.00000       0.01492       0.00311       0.01492       0.00311       0.00000       0.01989       0.00000       0.06215       0.00000       0.00000       0.00000       0.00000       0.00000       0.00000       0.00000       0.00000  
       6         6         1      2019    recall           pt00007       8.63537       0.00000       0.01492       0.00311       0.01492       0.00311       0.00000       0.01989       0.00000       0.06215       0.00000       0.00000       0.00000       0.00000       0.00000       0.00000       0.00000       0.00000  
       7         7         1      2019    recall           pt00007       8.63537       0.00000       0.01492       0.00311       0.01492       0.00311       0.00000       0.01989       0.00000       0.06215       0.00000       0.00000       0.00000       0.00000       0.00000       0.00000       0.00000       0.00000  
       8         8         1      2019    recall           pt00007       8.63537       0.00000       0.01492       0.00311       0.01492       0.00311       0.00000       0.01989       0.00000       0.06215       0.00000       0.00000       0.00000       0.00000       0.00000       0.00000       0.00000       0.00000  
       9         9         1      2019    recall           pt00007       8.63537       0.00000       0.01492       0.00311       0.01492       0.00311       0.00000       0.01989       0.00000       0.06215       0.00000       0.00000       0.00000       0.00000       0.00000       0.00000       0.00000       0.00000  
      10        10         1      2019    recall           pt00007       8.63537       0.00000       0.01492       0.00311       0.01492       0.00311       0.00000       0.01989       0.00000       0.06215       0.00000       0.00000       0.00000       0.00000       0.00000       0.00000       0.00000       0.00000  
      11        11         1      2019    recall           pt00007       8.63537       0.00000       0.01492       0.00311       0.01492       0.00311       0.00000       0.01989       0.00000       0.06215       0.00000       0.00000       0.00000       0.00000       0.00000       0.00000       0.00000       0.00000  
      12        12         1      2019    recall           pt00007       8.63537       0.00000       0.01492       0.00311       0.01492       0.00311       0.00000       0.01989       0.00000       0.06215       0.00000       0.00000       0.00000       0.00000       0.00000       0.00000       0.00000       0.00000  
