recall.rec: written by SWAT+ editor v2.0.0 on 2022-02-14 13:07
26
    jday        mo    day_mo       iyr    ob_typ           ob_name           flo           sed         ptl_n         ptl_p         no3_n         sol_p          chla         nh3_n         no2_n       cbn_bod           oxy          sand          silt          clay        sm_agg        lg_agg        gravel           tmp  
       1         1         1      1994    recall           pt00014    1387.58841       0.01543       2.21202       0.26500      14.61846       0.26500       0.00000       1.12373       0.31887       6.91150       0.00000       0.00000       0.00000       0.00000       0.00000       0.00000       0.00000       0.00000  
       2         2         1      1994    recall           pt00014    1387.58841       0.01543       2.21202       0.26500      14.61846       0.26500       0.00000       1.12373       0.31887       6.91150       0.00000       0.00000       0.00000       0.00000       0.00000       0.00000       0.00000       0.00000  
       3         3         1      1994    recall           pt00014    1387.58841       0.01543       2.21202       0.26500      14.61846       0.26500       0.00000       1.12373       0.31887       6.91150       0.00000       0.00000       0.00000       0.00000       0.00000       0.00000       0.00000       0.00000  
       4         4         1      1994    recall           pt00014    1387.58841       0.01543       2.21202       0.26500      14.61846       0.26500       0.00000       1.12373       0.31887       6.91150       0.00000       0.00000       0.00000       0.00000       0.00000       0.00000       0.00000       0.00000  
       5         5         1      1994    recall           pt00014    1387.58841       0.01543       2.21202       0.26500      14.61846       0.26500       0.00000       1.12373       0.31887       6.91150       0.00000       0.00000       0.00000       0.00000       0.00000       0.00000       0.00000       0.00000  
       6         6         1      1994    recall           pt00014    1387.58841       0.01543       2.21202       0.26500      14.61846       0.26500       0.00000       1.12373       0.31887       6.91150       0.00000       0.00000       0.00000       0.00000       0.00000       0.00000       0.00000       0.00000  
       7         7         1      1994    recall           pt00014    1387.58841       0.01543       2.21202       0.26500      14.61846       0.26500       0.00000       1.12373       0.31887       6.91150       0.00000       0.00000       0.00000       0.00000       0.00000       0.00000       0.00000       0.00000  
       8         8         1      1994    recall           pt00014    1387.58841       0.01543       2.21202       0.26500      14.61846       0.26500       0.00000       1.12373       0.31887       6.91150       0.00000       0.00000       0.00000       0.00000       0.00000       0.00000       0.00000       0.00000  
       9         9         1      1994    recall           pt00014    1387.58841       0.01543       2.21202       0.26500      14.61846       0.26500       0.00000       1.12373       0.31887       6.91150       0.00000       0.00000       0.00000       0.00000       0.00000       0.00000       0.00000       0.00000  
      10        10         1      1994    recall           pt00014    1387.58841       0.01543       2.21202       0.26500      14.61846       0.26500       0.00000       1.12373       0.31887       6.91150       0.00000       0.00000       0.00000       0.00000       0.00000       0.00000       0.00000       0.00000  
      11        11         1      1994    recall           pt00014    1387.58841       0.01543       2.21202       0.26500      14.61846       0.26500       0.00000       1.12373       0.31887       6.91150       0.00000       0.00000       0.00000       0.00000       0.00000       0.00000       0.00000       0.00000  
      12        12         1      1994    recall           pt00014    1387.58841       0.01543       2.21202       0.26500      14.61846       0.26500       0.00000       1.12373       0.31887       6.91150       0.00000       0.00000       0.00000       0.00000       0.00000       0.00000       0.00000       0.00000  
       1         1         1      1995    recall           pt00014    1387.58841       0.01543       2.21202       0.26500      14.61846       0.26500       0.00000       1.12373       0.31887       6.91150       0.00000       0.00000       0.00000       0.00000       0.00000       0.00000       0.00000       0.00000  
       2         2         1      1995    recall           pt00014    1387.58841       0.01543       2.21202       0.26500      14.61846       0.26500       0.00000       1.12373       0.31887       6.91150       0.00000       0.00000       0.00000       0.00000       0.00000       0.00000       0.00000       0.00000  
       3         3         1      1995    recall           pt00014    1387.58841       0.01543       2.21202       0.26500      14.61846       0.26500       0.00000       1.12373       0.31887       6.91150       0.00000       0.00000       0.00000       0.00000       0.00000       0.00000       0.00000       0.00000  
       4         4         1      1995    recall           pt00014    1387.58841       0.01543       2.21202       0.26500      14.61846       0.26500       0.00000       1.12373       0.31887       6.91150       0.00000       0.00000       0.00000       0.00000       0.00000       0.00000       0.00000       0.00000  
       5         5         1      1995    recall           pt00014    1387.58841       0.01543       2.21202       0.26500      14.61846       0.26500       0.00000       1.12373       0.31887       6.91150       0.00000       0.00000       0.00000       0.00000       0.00000       0.00000       0.00000       0.00000  
       6         6         1      1995    recall           pt00014    1387.58841       0.01543       2.21202       0.26500      14.61846       0.26500       0.00000       1.12373       0.31887       6.91150       0.00000       0.00000       0.00000       0.00000       0.00000       0.00000       0.00000       0.00000  
       7         7         1      1995    recall           pt00014    1387.58841       0.01543       2.21202       0.26500      14.61846       0.26500       0.00000       1.12373       0.31887       6.91150       0.00000       0.00000       0.00000       0.00000       0.00000       0.00000       0.00000       0.00000  
       8         8         1      1995    recall           pt00014    1387.58841       0.01543       2.21202       0.26500      14.61846       0.26500       0.00000       1.12373       0.31887       6.91150       0.00000       0.00000       0.00000       0.00000       0.00000       0.00000       0.00000       0.00000  
       9         9         1      1995    recall           pt00014    1387.58841       0.01543       2.21202       0.26500      14.61846       0.26500       0.00000       1.12373       0.31887       6.91150       0.00000       0.00000       0.00000       0.00000       0.00000       0.00000       0.00000       0.00000  
      10        10         1      1995    recall           pt00014    1387.58841       0.01543       2.21202       0.26500      14.61846       0.26500       0.00000       1.12373       0.31887       6.91150       0.00000       0.00000       0.00000       0.00000       0.00000       0.00000       0.00000       0.00000  
      11        11         1      1995    recall           pt00014    1387.58841       0.01543       2.21202       0.26500      14.61846       0.26500       0.00000       1.12373       0.31887       6.91150       0.00000       0.00000       0.00000       0.00000       0.00000       0.00000       0.00000       0.00000  
      12        12         1      1995    recall           pt00014    1387.58841       0.01543       2.21202       0.26500      14.61846       0.26500       0.00000       1.12373       0.31887       6.91150       0.00000       0.00000       0.00000       0.00000       0.00000       0.00000       0.00000       0.00000  
       1         1         1      1996    recall           pt00014    1387.58841       0.01543       2.21202       0.26500      14.61846       0.26500       0.00000       1.12373       0.31887       6.91150       0.00000       0.00000       0.00000       0.00000       0.00000       0.00000       0.00000       0.00000  
       2         2         1      1996    recall           pt00014    1387.58841       0.01543       2.21202       0.26500      14.61846       0.26500       0.00000       1.12373       0.31887       6.91150       0.00000       0.00000       0.00000       0.00000       0.00000       0.00000       0.00000       0.00000  
       3         3         1      1996    recall           pt00014    1387.58841       0.01543       2.21202       0.26500      14.61846       0.26500       0.00000       1.12373       0.31887       6.91150       0.00000       0.00000       0.00000       0.00000       0.00000       0.00000       0.00000       0.00000  
       4         4         1      1996    recall           pt00014    1387.58841       0.01543       2.21202       0.26500      14.61846       0.26500       0.00000       1.12373       0.31887       6.91150       0.00000       0.00000       0.00000       0.00000       0.00000       0.00000       0.00000       0.00000  
       5         5         1      1996    recall           pt00014    1387.58841       0.01543       2.21202       0.26500      14.61846       0.26500       0.00000       1.12373       0.31887       6.91150       0.00000       0.00000       0.00000       0.00000       0.00000       0.00000       0.00000       0.00000  
       6         6         1      1996    recall           pt00014    1387.58841       0.01543       2.21202       0.26500      14.61846       0.26500       0.00000       1.12373       0.31887       6.91150       0.00000       0.00000       0.00000       0.00000       0.00000       0.00000       0.00000       0.00000  
       7         7         1      1996    recall           pt00014    1387.58841       0.01543       2.21202       0.26500      14.61846       0.26500       0.00000       1.12373       0.31887       6.91150       0.00000       0.00000       0.00000       0.00000       0.00000       0.00000       0.00000       0.00000  
       8         8         1      1996    recall           pt00014    1387.58841       0.01543       2.21202       0.26500      14.61846       0.26500       0.00000       1.12373       0.31887       6.91150       0.00000       0.00000       0.00000       0.00000       0.00000       0.00000       0.00000       0.00000  
       9         9         1      1996    recall           pt00014    1387.58841       0.01543       2.21202       0.26500      14.61846       0.26500       0.00000       1.12373       0.31887       6.91150       0.00000       0.00000       0.00000       0.00000       0.00000       0.00000       0.00000       0.00000  
      10        10         1      1996    recall           pt00014    1387.58841       0.01543       2.21202       0.26500      14.61846       0.26500       0.00000       1.12373       0.31887       6.91150       0.00000       0.00000       0.00000       0.00000       0.00000       0.00000       0.00000       0.00000  
      11        11         1      1996    recall           pt00014    1387.58841       0.01543       2.21202       0.26500      14.61846       0.26500       0.00000       1.12373       0.31887       6.91150       0.00000       0.00000       0.00000       0.00000       0.00000       0.00000       0.00000       0.00000  
      12        12         1      1996    recall           pt00014    1387.58841       0.01543       2.21202       0.26500      14.61846       0.26500       0.00000       1.12373       0.31887       6.91150       0.00000       0.00000       0.00000       0.00000       0.00000       0.00000       0.00000       0.00000  
       1         1         1      1997    recall           pt00014    1802.65545       0.01942       2.32253       0.40314      15.50255       0.40314       0.00000       1.23424       0.31887       7.83243       0.00000       0.00000       0.00000       0.00000       0.00000       0.00000       0.00000       0.00000  
       2         2         1      1997    recall           pt00014    1802.65545       0.01942       2.32253       0.40314      15.50255       0.40314       0.00000       1.23424       0.31887       7.83243       0.00000       0.00000       0.00000       0.00000       0.00000       0.00000       0.00000       0.00000  
       3         3         1      1997    recall           pt00014    1802.65545       0.01942       2.32253       0.40314      15.50255       0.40314       0.00000       1.23424       0.31887       7.83243       0.00000       0.00000       0.00000       0.00000       0.00000       0.00000       0.00000       0.00000  
       4         4         1      1997    recall           pt00014    1802.65545       0.01942       2.32253       0.40314      15.50255       0.40314       0.00000       1.23424       0.31887       7.83243       0.00000       0.00000       0.00000       0.00000       0.00000       0.00000       0.00000       0.00000  
       5         5         1      1997    recall           pt00014    1802.65545       0.01942       2.32253       0.40314      15.50255       0.40314       0.00000       1.23424       0.31887       7.83243       0.00000       0.00000       0.00000       0.00000       0.00000       0.00000       0.00000       0.00000  
       6         6         1      1997    recall           pt00014    1802.65545       0.01942       2.32253       0.40314      15.50255       0.40314       0.00000       1.23424       0.31887       7.83243       0.00000       0.00000       0.00000       0.00000       0.00000       0.00000       0.00000       0.00000  
       7         7         1      1997    recall           pt00014    1802.65545       0.01942       2.32253       0.40314      15.50255       0.40314       0.00000       1.23424       0.31887       7.83243       0.00000       0.00000       0.00000       0.00000       0.00000       0.00000       0.00000       0.00000  
       8         8         1      1997    recall           pt00014    1802.65545       0.01942       2.32253       0.40314      15.50255       0.40314       0.00000       1.23424       0.31887       7.83243       0.00000       0.00000       0.00000       0.00000       0.00000       0.00000       0.00000       0.00000  
       9         9         1      1997    recall           pt00014    1802.65545       0.01942       2.32253       0.40314      15.50255       0.40314       0.00000       1.23424       0.31887       7.83243       0.00000       0.00000       0.00000       0.00000       0.00000       0.00000       0.00000       0.00000  
      10        10         1      1997    recall           pt00014    1802.65545       0.01942       2.32253       0.40314      15.50255       0.40314       0.00000       1.23424       0.31887       7.83243       0.00000       0.00000       0.00000       0.00000       0.00000       0.00000       0.00000       0.00000  
      11        11         1      1997    recall           pt00014    1802.65545       0.01942       2.32253       0.40314      15.50255       0.40314       0.00000       1.23424       0.31887       7.83243       0.00000       0.00000       0.00000       0.00000       0.00000       0.00000       0.00000       0.00000  
      12        12         1      1997    recall           pt00014    1802.65545       0.01942       2.32253       0.40314      15.50255       0.40314       0.00000       1.23424       0.31887       7.83243       0.00000       0.00000       0.00000       0.00000       0.00000       0.00000       0.00000       0.00000  
       1         1         1      1998    recall           pt00014    2185.07871       0.03780       0.53316       0.29499       8.04109       0.29499       0.00000       1.00514       0.47198      16.16958       0.00000       0.00000       0.00000       0.00000       0.00000       0.00000       0.00000       0.00000  
       2         2         1      1998    recall           pt00014    2185.07871       0.03780       0.53316       0.29499       8.04109       0.29499       0.00000       1.00514       0.47198      16.16958       0.00000       0.00000       0.00000       0.00000       0.00000       0.00000       0.00000       0.00000  
       3         3         1      1998    recall           pt00014    2185.07871       0.03780       0.53316       0.29499       8.04109       0.29499       0.00000       1.00514       0.47198      16.16958       0.00000       0.00000       0.00000       0.00000       0.00000       0.00000       0.00000       0.00000  
       4         4         1      1998    recall           pt00014    2185.07871       0.03780       0.53316       0.29499       8.04109       0.29499       0.00000       1.00514       0.47198      16.16958       0.00000       0.00000       0.00000       0.00000       0.00000       0.00000       0.00000       0.00000  
       5         5         1      1998    recall           pt00014    2185.07871       0.03780       0.53316       0.29499       8.04109       0.29499       0.00000       1.00514       0.47198      16.16958       0.00000       0.00000       0.00000       0.00000       0.00000       0.00000       0.00000       0.00000  
       6         6         1      1998    recall           pt00014    2185.07871       0.03780       0.53316       0.29499       8.04109       0.29499       0.00000       1.00514       0.47198      16.16958       0.00000       0.00000       0.00000       0.00000       0.00000       0.00000       0.00000       0.00000  
       7         7         1      1998    recall           pt00014    2185.07871       0.03780       0.53316       0.29499       8.04109       0.29499       0.00000       1.00514       0.47198      16.16958       0.00000       0.00000       0.00000       0.00000       0.00000       0.00000       0.00000       0.00000  
       8         8         1      1998    recall           pt00014    2185.07871       0.03780       0.53316       0.29499       8.04109       0.29499       0.00000       1.00514       0.47198      16.16958       0.00000       0.00000       0.00000       0.00000       0.00000       0.00000       0.00000       0.00000  
       9         9         1      1998    recall           pt00014    2185.07871       0.03780       0.53316       0.29499       8.04109       0.29499       0.00000       1.00514       0.47198      16.16958       0.00000       0.00000       0.00000       0.00000       0.00000       0.00000       0.00000       0.00000  
      10        10         1      1998    recall           pt00014    2185.07871       0.03780       0.53316       0.29499       8.04109       0.29499       0.00000       1.00514       0.47198      16.16958       0.00000       0.00000       0.00000       0.00000       0.00000       0.00000       0.00000       0.00000  
      11        11         1      1998    recall           pt00014    2185.07871       0.03780       0.53316       0.29499       8.04109       0.29499       0.00000       1.00514       0.47198      16.16958       0.00000       0.00000       0.00000       0.00000       0.00000       0.00000       0.00000       0.00000  
      12        12         1      1998    recall           pt00014    2185.07871       0.03780       0.53316       0.29499       8.04109       0.29499       0.00000       1.00514       0.47198      16.16958       0.00000       0.00000       0.00000       0.00000       0.00000       0.00000       0.00000       0.00000  
       1         1         1      1999    recall           pt00014      42.71138       0.00067       0.01861       0.01636       0.10251       0.01636       0.00000       0.02082       0.00000       0.12748       0.00000       0.00000       0.00000       0.00000       0.00000       0.00000       0.00000       0.00000  
       2         2         1      1999    recall           pt00014      42.71138       0.00067       0.01861       0.01636       0.10251       0.01636       0.00000       0.02082       0.00000       0.12748       0.00000       0.00000       0.00000       0.00000       0.00000       0.00000       0.00000       0.00000  
       3         3         1      1999    recall           pt00014      42.71138       0.00067       0.01861       0.01636       0.10251       0.01636       0.00000       0.02082       0.00000       0.12748       0.00000       0.00000       0.00000       0.00000       0.00000       0.00000       0.00000       0.00000  
       4         4         1      1999    recall           pt00014      42.71138       0.00067       0.01861       0.01636       0.10251       0.01636       0.00000       0.02082       0.00000       0.12748       0.00000       0.00000       0.00000       0.00000       0.00000       0.00000       0.00000       0.00000  
       5         5         1      1999    recall           pt00014      42.71138       0.00067       0.01861       0.01636       0.10251       0.01636       0.00000       0.02082       0.00000       0.12748       0.00000       0.00000       0.00000       0.00000       0.00000       0.00000       0.00000       0.00000  
       6         6         1      1999    recall           pt00014      42.71138       0.00067       0.01861       0.01636       0.10251       0.01636       0.00000       0.02082       0.00000       0.12748       0.00000       0.00000       0.00000       0.00000       0.00000       0.00000       0.00000       0.00000  
       7         7         1      1999    recall           pt00014      42.71138       0.00067       0.01861       0.01636       0.10251       0.01636       0.00000       0.02082       0.00000       0.12748       0.00000       0.00000       0.00000       0.00000       0.00000       0.00000       0.00000       0.00000  
       8         8         1      1999    recall           pt00014      42.71138       0.00067       0.01861       0.01636       0.10251       0.01636       0.00000       0.02082       0.00000       0.12748       0.00000       0.00000       0.00000       0.00000       0.00000       0.00000       0.00000       0.00000  
       9         9         1      1999    recall           pt00014      42.71138       0.00067       0.01861       0.01636       0.10251       0.01636       0.00000       0.02082       0.00000       0.12748       0.00000       0.00000       0.00000       0.00000       0.00000       0.00000       0.00000       0.00000  
      10        10         1      1999    recall           pt00014      42.71138       0.00067       0.01861       0.01636       0.10251       0.01636       0.00000       0.02082       0.00000       0.12748       0.00000       0.00000       0.00000       0.00000       0.00000       0.00000       0.00000       0.00000  
      11        11         1      1999    recall           pt00014      42.71138       0.00067       0.01861       0.01636       0.10251       0.01636       0.00000       0.02082       0.00000       0.12748       0.00000       0.00000       0.00000       0.00000       0.00000       0.00000       0.00000       0.00000  
      12        12         1      1999    recall           pt00014      42.71138       0.00067       0.01861       0.01636       0.10251       0.01636       0.00000       0.02082       0.00000       0.12748       0.00000       0.00000       0.00000       0.00000       0.00000       0.00000       0.00000       0.00000  
       1         1         1      2000    recall           pt00014     355.92820       0.00243       0.20797       0.25996       1.66377       0.25996       0.00000       0.20797       0.00000       1.73310       0.00000       0.00000       0.00000       0.00000       0.00000       0.00000       0.00000       0.00000  
       2         2         1      2000    recall           pt00014     355.92820       0.00243       0.20797       0.25996       1.66377       0.25996       0.00000       0.20797       0.00000       1.73310       0.00000       0.00000       0.00000       0.00000       0.00000       0.00000       0.00000       0.00000  
       3         3         1      2000    recall           pt00014     355.92820       0.00243       0.20797       0.25996       1.66377       0.25996       0.00000       0.20797       0.00000       1.73310       0.00000       0.00000       0.00000       0.00000       0.00000       0.00000       0.00000       0.00000  
       4         4         1      2000    recall           pt00014     355.92820       0.00243       0.20797       0.25996       1.66377       0.25996       0.00000       0.20797       0.00000       1.73310       0.00000       0.00000       0.00000       0.00000       0.00000       0.00000       0.00000       0.00000  
       5         5         1      2000    recall           pt00014     355.92820       0.00243       0.20797       0.25996       1.66377       0.25996       0.00000       0.20797       0.00000       1.73310       0.00000       0.00000       0.00000       0.00000       0.00000       0.00000       0.00000       0.00000  
       6         6         1      2000    recall           pt00014     355.92820       0.00243       0.20797       0.25996       1.66377       0.25996       0.00000       0.20797       0.00000       1.73310       0.00000       0.00000       0.00000       0.00000       0.00000       0.00000       0.00000       0.00000  
       7         7         1      2000    recall           pt00014     355.92820       0.00243       0.20797       0.25996       1.66377       0.25996       0.00000       0.20797       0.00000       1.73310       0.00000       0.00000       0.00000       0.00000       0.00000       0.00000       0.00000       0.00000  
       8         8         1      2000    recall           pt00014     355.92820       0.00243       0.20797       0.25996       1.66377       0.25996       0.00000       0.20797       0.00000       1.73310       0.00000       0.00000       0.00000       0.00000       0.00000       0.00000       0.00000       0.00000  
       9         9         1      2000    recall           pt00014     355.92820       0.00243       0.20797       0.25996       1.66377       0.25996       0.00000       0.20797       0.00000       1.73310       0.00000       0.00000       0.00000       0.00000       0.00000       0.00000       0.00000       0.00000  
      10        10         1      2000    recall           pt00014     355.92820       0.00243       0.20797       0.25996       1.66377       0.25996       0.00000       0.20797       0.00000       1.73310       0.00000       0.00000       0.00000       0.00000       0.00000       0.00000       0.00000       0.00000  
      11        11         1      2000    recall           pt00014     355.92820       0.00243       0.20797       0.25996       1.66377       0.25996       0.00000       0.20797       0.00000       1.73310       0.00000       0.00000       0.00000       0.00000       0.00000       0.00000       0.00000       0.00000  
      12        12         1      2000    recall           pt00014     355.92820       0.00243       0.20797       0.25996       1.66377       0.25996       0.00000       0.20797       0.00000       1.73310       0.00000       0.00000       0.00000       0.00000       0.00000       0.00000       0.00000       0.00000  
       1         1         1      2001    recall           pt00014     648.33691       0.00436       0.33324       0.41655       2.66592       0.41655       0.00000       0.33324       0.00000       2.77700       0.00000       0.00000       0.00000       0.00000       0.00000       0.00000       0.00000       0.00000  
       2         2         1      2001    recall           pt00014     648.33691       0.00436       0.33324       0.41655       2.66592       0.41655       0.00000       0.33324       0.00000       2.77700       0.00000       0.00000       0.00000       0.00000       0.00000       0.00000       0.00000       0.00000  
       3         3         1      2001    recall           pt00014     648.33691       0.00436       0.33324       0.41655       2.66592       0.41655       0.00000       0.33324       0.00000       2.77700       0.00000       0.00000       0.00000       0.00000       0.00000       0.00000       0.00000       0.00000  
       4         4         1      2001    recall           pt00014     648.33691       0.00436       0.33324       0.41655       2.66592       0.41655       0.00000       0.33324       0.00000       2.77700       0.00000       0.00000       0.00000       0.00000       0.00000       0.00000       0.00000       0.00000  
       5         5         1      2001    recall           pt00014     648.33691       0.00436       0.33324       0.41655       2.66592       0.41655       0.00000       0.33324       0.00000       2.77700       0.00000       0.00000       0.00000       0.00000       0.00000       0.00000       0.00000       0.00000  
       6         6         1      2001    recall           pt00014     648.33691       0.00436       0.33324       0.41655       2.66592       0.41655       0.00000       0.33324       0.00000       2.77700       0.00000       0.00000       0.00000       0.00000       0.00000       0.00000       0.00000       0.00000  
       7         7         1      2001    recall           pt00014     648.33691       0.00436       0.33324       0.41655       2.66592       0.41655       0.00000       0.33324       0.00000       2.77700       0.00000       0.00000       0.00000       0.00000       0.00000       0.00000       0.00000       0.00000  
       8         8         1      2001    recall           pt00014     648.33691       0.00436       0.33324       0.41655       2.66592       0.41655       0.00000       0.33324       0.00000       2.77700       0.00000       0.00000       0.00000       0.00000       0.00000       0.00000       0.00000       0.00000  
       9         9         1      2001    recall           pt00014     648.33691       0.00436       0.33324       0.41655       2.66592       0.41655       0.00000       0.33324       0.00000       2.77700       0.00000       0.00000       0.00000       0.00000       0.00000       0.00000       0.00000       0.00000  
      10        10         1      2001    recall           pt00014     648.33691       0.00436       0.33324       0.41655       2.66592       0.41655       0.00000       0.33324       0.00000       2.77700       0.00000       0.00000       0.00000       0.00000       0.00000       0.00000       0.00000       0.00000  
      11        11         1      2001    recall           pt00014     648.33691       0.00436       0.33324       0.41655       2.66592       0.41655       0.00000       0.33324       0.00000       2.77700       0.00000       0.00000       0.00000       0.00000       0.00000       0.00000       0.00000       0.00000  
      12        12         1      2001    recall           pt00014     648.33691       0.00436       0.33324       0.41655       2.66592       0.41655       0.00000       0.33324       0.00000       2.77700       0.00000       0.00000       0.00000       0.00000       0.00000       0.00000       0.00000       0.00000  
       1         1         1      2002    recall           pt00014     266.39857       0.00244       0.12439       0.17614       0.99511       0.13483       0.00000       0.12439       0.00000       1.03658       0.00000       0.00000       0.00000       0.00000       0.00000       0.00000       0.00000       0.00000  
       2         2         1      2002    recall           pt00014     266.39857       0.00244       0.12439       0.17614       0.99511       0.13483       0.00000       0.12439       0.00000       1.03658       0.00000       0.00000       0.00000       0.00000       0.00000       0.00000       0.00000       0.00000  
       3         3         1      2002    recall           pt00014     266.39857       0.00244       0.12439       0.17614       0.99511       0.13483       0.00000       0.12439       0.00000       1.03658       0.00000       0.00000       0.00000       0.00000       0.00000       0.00000       0.00000       0.00000  
       4         4         1      2002    recall           pt00014     266.39857       0.00244       0.12439       0.17614       0.99511       0.13483       0.00000       0.12439       0.00000       1.03658       0.00000       0.00000       0.00000       0.00000       0.00000       0.00000       0.00000       0.00000  
       5         5         1      2002    recall           pt00014     266.39857       0.00244       0.12439       0.17614       0.99511       0.13483       0.00000       0.12439       0.00000       1.03658       0.00000       0.00000       0.00000       0.00000       0.00000       0.00000       0.00000       0.00000  
       6         6         1      2002    recall           pt00014     266.39857       0.00244       0.12439       0.17614       0.99511       0.13483       0.00000       0.12439       0.00000       1.03658       0.00000       0.00000       0.00000       0.00000       0.00000       0.00000       0.00000       0.00000  
       7         7         1      2002    recall           pt00014     266.39857       0.00244       0.12439       0.17614       0.99511       0.13483       0.00000       0.12439       0.00000       1.03658       0.00000       0.00000       0.00000       0.00000       0.00000       0.00000       0.00000       0.00000  
       8         8         1      2002    recall           pt00014     266.39857       0.00244       0.12439       0.17614       0.99511       0.13483       0.00000       0.12439       0.00000       1.03658       0.00000       0.00000       0.00000       0.00000       0.00000       0.00000       0.00000       0.00000  
       9         9         1      2002    recall           pt00014     266.39857       0.00244       0.12439       0.17614       0.99511       0.13483       0.00000       0.12439       0.00000       1.03658       0.00000       0.00000       0.00000       0.00000       0.00000       0.00000       0.00000       0.00000  
      10        10         1      2002    recall           pt00014     266.39857       0.00244       0.12439       0.17614       0.99511       0.13483       0.00000       0.12439       0.00000       1.03658       0.00000       0.00000       0.00000       0.00000       0.00000       0.00000       0.00000       0.00000  
      11        11         1      2002    recall           pt00014     266.39857       0.00244       0.12439       0.17614       0.99511       0.13483       0.00000       0.12439       0.00000       1.03658       0.00000       0.00000       0.00000       0.00000       0.00000       0.00000       0.00000       0.00000  
      12        12         1      2002    recall           pt00014     266.39857       0.00244       0.12439       0.17614       0.99511       0.13483       0.00000       0.12439       0.00000       1.03658       0.00000       0.00000       0.00000       0.00000       0.00000       0.00000       0.00000       0.00000  
       1         1         1      2003    recall           pt00014    2604.80278       0.01922       2.28452       0.85582      21.84336       0.85582       0.00000       2.73042       0.44590       9.51764       0.00000       0.00000       0.00000       0.00000       0.00000       0.00000       0.00000       0.00000  
       2         2         1      2003    recall           pt00014    2604.80278       0.01922       2.28452       0.85582      21.84336       0.85582       0.00000       2.73042       0.44590       9.51764       0.00000       0.00000       0.00000       0.00000       0.00000       0.00000       0.00000       0.00000  
       3         3         1      2003    recall           pt00014    2604.80278       0.01922       2.28452       0.85582      21.84336       0.85582       0.00000       2.73042       0.44590       9.51764       0.00000       0.00000       0.00000       0.00000       0.00000       0.00000       0.00000       0.00000  
       4         4         1      2003    recall           pt00014    2604.80278       0.01922       2.28452       0.85582      21.84336       0.85582       0.00000       2.73042       0.44590       9.51764       0.00000       0.00000       0.00000       0.00000       0.00000       0.00000       0.00000       0.00000  
       5         5         1      2003    recall           pt00014    2604.80278       0.01922       2.28452       0.85582      21.84336       0.85582       0.00000       2.73042       0.44590       9.51764       0.00000       0.00000       0.00000       0.00000       0.00000       0.00000       0.00000       0.00000  
       6         6         1      2003    recall           pt00014    2604.80278       0.01922       2.28452       0.85582      21.84336       0.85582       0.00000       2.73042       0.44590       9.51764       0.00000       0.00000       0.00000       0.00000       0.00000       0.00000       0.00000       0.00000  
       7         7         1      2003    recall           pt00014    2604.80278       0.01922       2.28452       0.85582      21.84336       0.85582       0.00000       2.73042       0.44590       9.51764       0.00000       0.00000       0.00000       0.00000       0.00000       0.00000       0.00000       0.00000  
       8         8         1      2003    recall           pt00014    2604.80278       0.01922       2.28452       0.85582      21.84336       0.85582       0.00000       2.73042       0.44590       9.51764       0.00000       0.00000       0.00000       0.00000       0.00000       0.00000       0.00000       0.00000  
       9         9         1      2003    recall           pt00014    2604.80278       0.01922       2.28452       0.85582      21.84336       0.85582       0.00000       2.73042       0.44590       9.51764       0.00000       0.00000       0.00000       0.00000       0.00000       0.00000       0.00000       0.00000  
      10        10         1      2003    recall           pt00014    2604.80278       0.01922       2.28452       0.85582      21.84336       0.85582       0.00000       2.73042       0.44590       9.51764       0.00000       0.00000       0.00000       0.00000       0.00000       0.00000       0.00000       0.00000  
      11        11         1      2003    recall           pt00014    2604.80278       0.01922       2.28452       0.85582      21.84336       0.85582       0.00000       2.73042       0.44590       9.51764       0.00000       0.00000       0.00000       0.00000       0.00000       0.00000       0.00000       0.00000  
      12        12         1      2003    recall           pt00014    2604.80278       0.01922       2.28452       0.85582      21.84336       0.85582       0.00000       2.73042       0.44590       9.51764       0.00000       0.00000       0.00000       0.00000       0.00000       0.00000       0.00000       0.00000  
       1         1         1      2004    recall           pt00014     705.27036       0.00343       1.54102       0.18690       8.42375       0.18690       0.00000       0.50779       0.05713       1.78433       0.00000       0.00000       0.00000       0.00000       0.00000       0.00000       0.00000       0.00000  
       2         2         1      2004    recall           pt00014     705.27036       0.00343       1.54102       0.18690       8.42375       0.18690       0.00000       0.50779       0.05713       1.78433       0.00000       0.00000       0.00000       0.00000       0.00000       0.00000       0.00000       0.00000  
       3         3         1      2004    recall           pt00014     705.27036       0.00343       1.54102       0.18690       8.42375       0.18690       0.00000       0.50779       0.05713       1.78433       0.00000       0.00000       0.00000       0.00000       0.00000       0.00000       0.00000       0.00000  
       4         4         1      2004    recall           pt00014     705.27036       0.00343       1.54102       0.18690       8.42375       0.18690       0.00000       0.50779       0.05713       1.78433       0.00000       0.00000       0.00000       0.00000       0.00000       0.00000       0.00000       0.00000  
       5         5         1      2004    recall           pt00014     705.27036       0.00343       1.54102       0.18690       8.42375       0.18690       0.00000       0.50779       0.05713       1.78433       0.00000       0.00000       0.00000       0.00000       0.00000       0.00000       0.00000       0.00000  
       6         6         1      2004    recall           pt00014     705.27036       0.00343       1.54102       0.18690       8.42375       0.18690       0.00000       0.50779       0.05713       1.78433       0.00000       0.00000       0.00000       0.00000       0.00000       0.00000       0.00000       0.00000  
       7         7         1      2004    recall           pt00014     705.27036       0.00343       1.54102       0.18690       8.42375       0.18690       0.00000       0.50779       0.05713       1.78433       0.00000       0.00000       0.00000       0.00000       0.00000       0.00000       0.00000       0.00000  
       8         8         1      2004    recall           pt00014     705.27036       0.00343       1.54102       0.18690       8.42375       0.18690       0.00000       0.50779       0.05713       1.78433       0.00000       0.00000       0.00000       0.00000       0.00000       0.00000       0.00000       0.00000  
       9         9         1      2004    recall           pt00014     705.27036       0.00343       1.54102       0.18690       8.42375       0.18690       0.00000       0.50779       0.05713       1.78433       0.00000       0.00000       0.00000       0.00000       0.00000       0.00000       0.00000       0.00000  
      10        10         1      2004    recall           pt00014     705.27036       0.00343       1.54102       0.18690       8.42375       0.18690       0.00000       0.50779       0.05713       1.78433       0.00000       0.00000       0.00000       0.00000       0.00000       0.00000       0.00000       0.00000  
      11        11         1      2004    recall           pt00014     705.27036       0.00343       1.54102       0.18690       8.42375       0.18690       0.00000       0.50779       0.05713       1.78433       0.00000       0.00000       0.00000       0.00000       0.00000       0.00000       0.00000       0.00000  
      12        12         1      2004    recall           pt00014     705.27036       0.00343       1.54102       0.18690       8.42375       0.18690       0.00000       0.50779       0.05713       1.78433       0.00000       0.00000       0.00000       0.00000       0.00000       0.00000       0.00000       0.00000  
       1         1         1      2005    recall           pt00014    1515.94798       0.01865       1.75850       0.22739      16.73607       0.22739       0.00000       1.97073       0.45478      12.12758       0.00000       0.00000       0.00000       0.00000       0.00000       0.00000       0.00000       0.00000  
       2         2         1      2005    recall           pt00014    1515.94798       0.01865       1.75850       0.22739      16.73607       0.22739       0.00000       1.97073       0.45478      12.12758       0.00000       0.00000       0.00000       0.00000       0.00000       0.00000       0.00000       0.00000  
       3         3         1      2005    recall           pt00014    1515.94798       0.01865       1.75850       0.22739      16.73607       0.22739       0.00000       1.97073       0.45478      12.12758       0.00000       0.00000       0.00000       0.00000       0.00000       0.00000       0.00000       0.00000  
       4         4         1      2005    recall           pt00014    1515.94798       0.01865       1.75850       0.22739      16.73607       0.22739       0.00000       1.97073       0.45478      12.12758       0.00000       0.00000       0.00000       0.00000       0.00000       0.00000       0.00000       0.00000  
       5         5         1      2005    recall           pt00014    1515.94798       0.01865       1.75850       0.22739      16.73607       0.22739       0.00000       1.97073       0.45478      12.12758       0.00000       0.00000       0.00000       0.00000       0.00000       0.00000       0.00000       0.00000  
       6         6         1      2005    recall           pt00014    1515.94798       0.01865       1.75850       0.22739      16.73607       0.22739       0.00000       1.97073       0.45478      12.12758       0.00000       0.00000       0.00000       0.00000       0.00000       0.00000       0.00000       0.00000  
       7         7         1      2005    recall           pt00014    1515.94798       0.01865       1.75850       0.22739      16.73607       0.22739       0.00000       1.97073       0.45478      12.12758       0.00000       0.00000       0.00000       0.00000       0.00000       0.00000       0.00000       0.00000  
       8         8         1      2005    recall           pt00014    1515.94798       0.01865       1.75850       0.22739      16.73607       0.22739       0.00000       1.97073       0.45478      12.12758       0.00000       0.00000       0.00000       0.00000       0.00000       0.00000       0.00000       0.00000  
       9         9         1      2005    recall           pt00014    1515.94798       0.01865       1.75850       0.22739      16.73607       0.22739       0.00000       1.97073       0.45478      12.12758       0.00000       0.00000       0.00000       0.00000       0.00000       0.00000       0.00000       0.00000  
      10        10         1      2005    recall           pt00014    1515.94798       0.01865       1.75850       0.22739      16.73607       0.22739       0.00000       1.97073       0.45478      12.12758       0.00000       0.00000       0.00000       0.00000       0.00000       0.00000       0.00000       0.00000  
      11        11         1      2005    recall           pt00014    1515.94798       0.01865       1.75850       0.22739      16.73607       0.22739       0.00000       1.97073       0.45478      12.12758       0.00000       0.00000       0.00000       0.00000       0.00000       0.00000       0.00000       0.00000  
      12        12         1      2005    recall           pt00014    1515.94798       0.01865       1.75850       0.22739      16.73607       0.22739       0.00000       1.97073       0.45478      12.12758       0.00000       0.00000       0.00000       0.00000       0.00000       0.00000       0.00000       0.00000  
       1         1         1      2006    recall           pt00014    1134.83915       0.01167       3.57361       0.27236      18.58413       0.27236       0.00000       0.70133       0.37109       2.53069       0.00000       0.00000       0.00000       0.00000       0.00000       0.00000       0.00000       0.00000  
       2         2         1      2006    recall           pt00014    1134.83915       0.01167       3.57361       0.27236      18.58413       0.27236       0.00000       0.70133       0.37109       2.53069       0.00000       0.00000       0.00000       0.00000       0.00000       0.00000       0.00000       0.00000  
       3         3         1      2006    recall           pt00014    1134.83915       0.01167       3.57361       0.27236      18.58413       0.27236       0.00000       0.70133       0.37109       2.53069       0.00000       0.00000       0.00000       0.00000       0.00000       0.00000       0.00000       0.00000  
       4         4         1      2006    recall           pt00014    1134.83915       0.01167       3.57361       0.27236      18.58413       0.27236       0.00000       0.70133       0.37109       2.53069       0.00000       0.00000       0.00000       0.00000       0.00000       0.00000       0.00000       0.00000  
       5         5         1      2006    recall           pt00014    1134.83915       0.01167       3.57361       0.27236      18.58413       0.27236       0.00000       0.70133       0.37109       2.53069       0.00000       0.00000       0.00000       0.00000       0.00000       0.00000       0.00000       0.00000  
       6         6         1      2006    recall           pt00014    1134.83915       0.01167       3.57361       0.27236      18.58413       0.27236       0.00000       0.70133       0.37109       2.53069       0.00000       0.00000       0.00000       0.00000       0.00000       0.00000       0.00000       0.00000  
       7         7         1      2006    recall           pt00014    1134.83915       0.01167       3.57361       0.27236      18.58413       0.27236       0.00000       0.70133       0.37109       2.53069       0.00000       0.00000       0.00000       0.00000       0.00000       0.00000       0.00000       0.00000  
       8         8         1      2006    recall           pt00014    1134.83915       0.01167       3.57361       0.27236      18.58413       0.27236       0.00000       0.70133       0.37109       2.53069       0.00000       0.00000       0.00000       0.00000       0.00000       0.00000       0.00000       0.00000  
       9         9         1      2006    recall           pt00014    1134.83915       0.01167       3.57361       0.27236      18.58413       0.27236       0.00000       0.70133       0.37109       2.53069       0.00000       0.00000       0.00000       0.00000       0.00000       0.00000       0.00000       0.00000  
      10        10         1      2006    recall           pt00014    1134.83915       0.01167       3.57361       0.27236      18.58413       0.27236       0.00000       0.70133       0.37109       2.53069       0.00000       0.00000       0.00000       0.00000       0.00000       0.00000       0.00000       0.00000  
      11        11         1      2006    recall           pt00014    1134.83915       0.01167       3.57361       0.27236      18.58413       0.27236       0.00000       0.70133       0.37109       2.53069       0.00000       0.00000       0.00000       0.00000       0.00000       0.00000       0.00000       0.00000  
      12        12         1      2006    recall           pt00014    1134.83915       0.01167       3.57361       0.27236      18.58413       0.27236       0.00000       0.70133       0.37109       2.53069       0.00000       0.00000       0.00000       0.00000       0.00000       0.00000       0.00000       0.00000  
       1         1         1      2007    recall           pt00014     720.05476       0.00560       3.88614       0.13357      16.52094       0.13357       0.00000       0.13177       0.11233       1.87934       0.00000       0.00000       0.00000       0.00000       0.00000       0.00000       0.00000       0.00000  
       2         2         1      2007    recall           pt00014     720.05476       0.00560       3.88614       0.13357      16.52094       0.13357       0.00000       0.13177       0.11233       1.87934       0.00000       0.00000       0.00000       0.00000       0.00000       0.00000       0.00000       0.00000  
       3         3         1      2007    recall           pt00014     720.05476       0.00560       3.88614       0.13357      16.52094       0.13357       0.00000       0.13177       0.11233       1.87934       0.00000       0.00000       0.00000       0.00000       0.00000       0.00000       0.00000       0.00000  
       4         4         1      2007    recall           pt00014     720.05476       0.00560       3.88614       0.13357      16.52094       0.13357       0.00000       0.13177       0.11233       1.87934       0.00000       0.00000       0.00000       0.00000       0.00000       0.00000       0.00000       0.00000  
       5         5         1      2007    recall           pt00014     720.05476       0.00560       3.88614       0.13357      16.52094       0.13357       0.00000       0.13177       0.11233       1.87934       0.00000       0.00000       0.00000       0.00000       0.00000       0.00000       0.00000       0.00000  
       6         6         1      2007    recall           pt00014     720.05476       0.00560       3.88614       0.13357      16.52094       0.13357       0.00000       0.13177       0.11233       1.87934       0.00000       0.00000       0.00000       0.00000       0.00000       0.00000       0.00000       0.00000  
       7         7         1      2007    recall           pt00014     720.05476       0.00560       3.88614       0.13357      16.52094       0.13357       0.00000       0.13177       0.11233       1.87934       0.00000       0.00000       0.00000       0.00000       0.00000       0.00000       0.00000       0.00000  
       8         8         1      2007    recall           pt00014     720.05476       0.00560       3.88614       0.13357      16.52094       0.13357       0.00000       0.13177       0.11233       1.87934       0.00000       0.00000       0.00000       0.00000       0.00000       0.00000       0.00000       0.00000  
       9         9         1      2007    recall           pt00014     720.05476       0.00560       3.88614       0.13357      16.52094       0.13357       0.00000       0.13177       0.11233       1.87934       0.00000       0.00000       0.00000       0.00000       0.00000       0.00000       0.00000       0.00000  
      10        10         1      2007    recall           pt00014     720.05476       0.00560       3.88614       0.13357      16.52094       0.13357       0.00000       0.13177       0.11233       1.87934       0.00000       0.00000       0.00000       0.00000       0.00000       0.00000       0.00000       0.00000  
      11        11         1      2007    recall           pt00014     720.05476       0.00560       3.88614       0.13357      16.52094       0.13357       0.00000       0.13177       0.11233       1.87934       0.00000       0.00000       0.00000       0.00000       0.00000       0.00000       0.00000       0.00000  
      12        12         1      2007    recall           pt00014     720.05476       0.00560       3.88614       0.13357      16.52094       0.13357       0.00000       0.13177       0.11233       1.87934       0.00000       0.00000       0.00000       0.00000       0.00000       0.00000       0.00000       0.00000  
       1         1         1      2008    recall           pt00014    1387.58841       0.01543       2.21202       0.26500      14.61846       0.26500       0.00000       1.12373       0.31887       6.91150       0.00000       0.00000       0.00000       0.00000       0.00000       0.00000       0.00000       0.00000  
       2         2         1      2008    recall           pt00014    1387.58841       0.01543       2.21202       0.26500      14.61846       0.26500       0.00000       1.12373       0.31887       6.91150       0.00000       0.00000       0.00000       0.00000       0.00000       0.00000       0.00000       0.00000  
       3         3         1      2008    recall           pt00014    1387.58841       0.01543       2.21202       0.26500      14.61846       0.26500       0.00000       1.12373       0.31887       6.91150       0.00000       0.00000       0.00000       0.00000       0.00000       0.00000       0.00000       0.00000  
       4         4         1      2008    recall           pt00014    1387.58841       0.01543       2.21202       0.26500      14.61846       0.26500       0.00000       1.12373       0.31887       6.91150       0.00000       0.00000       0.00000       0.00000       0.00000       0.00000       0.00000       0.00000  
       5         5         1      2008    recall           pt00014    1387.58841       0.01543       2.21202       0.26500      14.61846       0.26500       0.00000       1.12373       0.31887       6.91150       0.00000       0.00000       0.00000       0.00000       0.00000       0.00000       0.00000       0.00000  
       6         6         1      2008    recall           pt00014    1387.58841       0.01543       2.21202       0.26500      14.61846       0.26500       0.00000       1.12373       0.31887       6.91150       0.00000       0.00000       0.00000       0.00000       0.00000       0.00000       0.00000       0.00000  
       7         7         1      2008    recall           pt00014    1387.58841       0.01543       2.21202       0.26500      14.61846       0.26500       0.00000       1.12373       0.31887       6.91150       0.00000       0.00000       0.00000       0.00000       0.00000       0.00000       0.00000       0.00000  
       8         8         1      2008    recall           pt00014    1387.58841       0.01543       2.21202       0.26500      14.61846       0.26500       0.00000       1.12373       0.31887       6.91150       0.00000       0.00000       0.00000       0.00000       0.00000       0.00000       0.00000       0.00000  
       9         9         1      2008    recall           pt00014    1387.58841       0.01543       2.21202       0.26500      14.61846       0.26500       0.00000       1.12373       0.31887       6.91150       0.00000       0.00000       0.00000       0.00000       0.00000       0.00000       0.00000       0.00000  
      10        10         1      2008    recall           pt00014    1387.58841       0.01543       2.21202       0.26500      14.61846       0.26500       0.00000       1.12373       0.31887       6.91150       0.00000       0.00000       0.00000       0.00000       0.00000       0.00000       0.00000       0.00000  
      11        11         1      2008    recall           pt00014    1387.58841       0.01543       2.21202       0.26500      14.61846       0.26500       0.00000       1.12373       0.31887       6.91150       0.00000       0.00000       0.00000       0.00000       0.00000       0.00000       0.00000       0.00000  
      12        12         1      2008    recall           pt00014    1387.58841       0.01543       2.21202       0.26500      14.61846       0.26500       0.00000       1.12373       0.31887       6.91150       0.00000       0.00000       0.00000       0.00000       0.00000       0.00000       0.00000       0.00000  
       1         1         1      2009    recall           pt00014    1387.58841       0.01543       2.21202       0.26500      14.61846       0.26500       0.00000       1.12373       0.31887       6.91150       0.00000       0.00000       0.00000       0.00000       0.00000       0.00000       0.00000       0.00000  
       2         2         1      2009    recall           pt00014    1387.58841       0.01543       2.21202       0.26500      14.61846       0.26500       0.00000       1.12373       0.31887       6.91150       0.00000       0.00000       0.00000       0.00000       0.00000       0.00000       0.00000       0.00000  
       3         3         1      2009    recall           pt00014    1387.58841       0.01543       2.21202       0.26500      14.61846       0.26500       0.00000       1.12373       0.31887       6.91150       0.00000       0.00000       0.00000       0.00000       0.00000       0.00000       0.00000       0.00000  
       4         4         1      2009    recall           pt00014    1387.58841       0.01543       2.21202       0.26500      14.61846       0.26500       0.00000       1.12373       0.31887       6.91150       0.00000       0.00000       0.00000       0.00000       0.00000       0.00000       0.00000       0.00000  
       5         5         1      2009    recall           pt00014    1387.58841       0.01543       2.21202       0.26500      14.61846       0.26500       0.00000       1.12373       0.31887       6.91150       0.00000       0.00000       0.00000       0.00000       0.00000       0.00000       0.00000       0.00000  
       6         6         1      2009    recall           pt00014    1387.58841       0.01543       2.21202       0.26500      14.61846       0.26500       0.00000       1.12373       0.31887       6.91150       0.00000       0.00000       0.00000       0.00000       0.00000       0.00000       0.00000       0.00000  
       7         7         1      2009    recall           pt00014    1387.58841       0.01543       2.21202       0.26500      14.61846       0.26500       0.00000       1.12373       0.31887       6.91150       0.00000       0.00000       0.00000       0.00000       0.00000       0.00000       0.00000       0.00000  
       8         8         1      2009    recall           pt00014    1387.58841       0.01543       2.21202       0.26500      14.61846       0.26500       0.00000       1.12373       0.31887       6.91150       0.00000       0.00000       0.00000       0.00000       0.00000       0.00000       0.00000       0.00000  
       9         9         1      2009    recall           pt00014    1387.58841       0.01543       2.21202       0.26500      14.61846       0.26500       0.00000       1.12373       0.31887       6.91150       0.00000       0.00000       0.00000       0.00000       0.00000       0.00000       0.00000       0.00000  
      10        10         1      2009    recall           pt00014    1387.58841       0.01543       2.21202       0.26500      14.61846       0.26500       0.00000       1.12373       0.31887       6.91150       0.00000       0.00000       0.00000       0.00000       0.00000       0.00000       0.00000       0.00000  
      11        11         1      2009    recall           pt00014    1387.58841       0.01543       2.21202       0.26500      14.61846       0.26500       0.00000       1.12373       0.31887       6.91150       0.00000       0.00000       0.00000       0.00000       0.00000       0.00000       0.00000       0.00000  
      12        12         1      2009    recall           pt00014    1387.58841       0.01543       2.21202       0.26500      14.61846       0.26500       0.00000       1.12373       0.31887       6.91150       0.00000       0.00000       0.00000       0.00000       0.00000       0.00000       0.00000       0.00000  
       1         1         1      2010    recall           pt00014    1387.58841       0.01543       2.21202       0.26500      14.61846       0.26500       0.00000       1.12373       0.31887       6.91150       0.00000       0.00000       0.00000       0.00000       0.00000       0.00000       0.00000       0.00000  
       2         2         1      2010    recall           pt00014    1387.58841       0.01543       2.21202       0.26500      14.61846       0.26500       0.00000       1.12373       0.31887       6.91150       0.00000       0.00000       0.00000       0.00000       0.00000       0.00000       0.00000       0.00000  
       3         3         1      2010    recall           pt00014    1387.58841       0.01543       2.21202       0.26500      14.61846       0.26500       0.00000       1.12373       0.31887       6.91150       0.00000       0.00000       0.00000       0.00000       0.00000       0.00000       0.00000       0.00000  
       4         4         1      2010    recall           pt00014    1387.58841       0.01543       2.21202       0.26500      14.61846       0.26500       0.00000       1.12373       0.31887       6.91150       0.00000       0.00000       0.00000       0.00000       0.00000       0.00000       0.00000       0.00000  
       5         5         1      2010    recall           pt00014    1387.58841       0.01543       2.21202       0.26500      14.61846       0.26500       0.00000       1.12373       0.31887       6.91150       0.00000       0.00000       0.00000       0.00000       0.00000       0.00000       0.00000       0.00000  
       6         6         1      2010    recall           pt00014    1387.58841       0.01543       2.21202       0.26500      14.61846       0.26500       0.00000       1.12373       0.31887       6.91150       0.00000       0.00000       0.00000       0.00000       0.00000       0.00000       0.00000       0.00000  
       7         7         1      2010    recall           pt00014    1387.58841       0.01543       2.21202       0.26500      14.61846       0.26500       0.00000       1.12373       0.31887       6.91150       0.00000       0.00000       0.00000       0.00000       0.00000       0.00000       0.00000       0.00000  
       8         8         1      2010    recall           pt00014    1387.58841       0.01543       2.21202       0.26500      14.61846       0.26500       0.00000       1.12373       0.31887       6.91150       0.00000       0.00000       0.00000       0.00000       0.00000       0.00000       0.00000       0.00000  
       9         9         1      2010    recall           pt00014    1387.58841       0.01543       2.21202       0.26500      14.61846       0.26500       0.00000       1.12373       0.31887       6.91150       0.00000       0.00000       0.00000       0.00000       0.00000       0.00000       0.00000       0.00000  
      10        10         1      2010    recall           pt00014    1387.58841       0.01543       2.21202       0.26500      14.61846       0.26500       0.00000       1.12373       0.31887       6.91150       0.00000       0.00000       0.00000       0.00000       0.00000       0.00000       0.00000       0.00000  
      11        11         1      2010    recall           pt00014    1387.58841       0.01543       2.21202       0.26500      14.61846       0.26500       0.00000       1.12373       0.31887       6.91150       0.00000       0.00000       0.00000       0.00000       0.00000       0.00000       0.00000       0.00000  
      12        12         1      2010    recall           pt00014    1387.58841       0.01543       2.21202       0.26500      14.61846       0.26500       0.00000       1.12373       0.31887       6.91150       0.00000       0.00000       0.00000       0.00000       0.00000       0.00000       0.00000       0.00000  
       1         1         1      2011    recall           pt00014    1387.58841       0.01543       2.21202       0.26500      14.61846       0.26500       0.00000       1.12373       0.31887       6.91150       0.00000       0.00000       0.00000       0.00000       0.00000       0.00000       0.00000       0.00000  
       2         2         1      2011    recall           pt00014    1387.58841       0.01543       2.21202       0.26500      14.61846       0.26500       0.00000       1.12373       0.31887       6.91150       0.00000       0.00000       0.00000       0.00000       0.00000       0.00000       0.00000       0.00000  
       3         3         1      2011    recall           pt00014    1387.58841       0.01543       2.21202       0.26500      14.61846       0.26500       0.00000       1.12373       0.31887       6.91150       0.00000       0.00000       0.00000       0.00000       0.00000       0.00000       0.00000       0.00000  
       4         4         1      2011    recall           pt00014    1387.58841       0.01543       2.21202       0.26500      14.61846       0.26500       0.00000       1.12373       0.31887       6.91150       0.00000       0.00000       0.00000       0.00000       0.00000       0.00000       0.00000       0.00000  
       5         5         1      2011    recall           pt00014    1387.58841       0.01543       2.21202       0.26500      14.61846       0.26500       0.00000       1.12373       0.31887       6.91150       0.00000       0.00000       0.00000       0.00000       0.00000       0.00000       0.00000       0.00000  
       6         6         1      2011    recall           pt00014    1387.58841       0.01543       2.21202       0.26500      14.61846       0.26500       0.00000       1.12373       0.31887       6.91150       0.00000       0.00000       0.00000       0.00000       0.00000       0.00000       0.00000       0.00000  
       7         7         1      2011    recall           pt00014    1387.58841       0.01543       2.21202       0.26500      14.61846       0.26500       0.00000       1.12373       0.31887       6.91150       0.00000       0.00000       0.00000       0.00000       0.00000       0.00000       0.00000       0.00000  
       8         8         1      2011    recall           pt00014    1387.58841       0.01543       2.21202       0.26500      14.61846       0.26500       0.00000       1.12373       0.31887       6.91150       0.00000       0.00000       0.00000       0.00000       0.00000       0.00000       0.00000       0.00000  
       9         9         1      2011    recall           pt00014    1387.58841       0.01543       2.21202       0.26500      14.61846       0.26500       0.00000       1.12373       0.31887       6.91150       0.00000       0.00000       0.00000       0.00000       0.00000       0.00000       0.00000       0.00000  
      10        10         1      2011    recall           pt00014    1387.58841       0.01543       2.21202       0.26500      14.61846       0.26500       0.00000       1.12373       0.31887       6.91150       0.00000       0.00000       0.00000       0.00000       0.00000       0.00000       0.00000       0.00000  
      11        11         1      2011    recall           pt00014    1387.58841       0.01543       2.21202       0.26500      14.61846       0.26500       0.00000       1.12373       0.31887       6.91150       0.00000       0.00000       0.00000       0.00000       0.00000       0.00000       0.00000       0.00000  
      12        12         1      2011    recall           pt00014    1387.58841       0.01543       2.21202       0.26500      14.61846       0.26500       0.00000       1.12373       0.31887       6.91150       0.00000       0.00000       0.00000       0.00000       0.00000       0.00000       0.00000       0.00000  
       1         1         1      2012    recall           pt00014    1387.58841       0.01543       2.21202       0.26500      14.61846       0.26500       0.00000       1.12373       0.31887       6.91150       0.00000       0.00000       0.00000       0.00000       0.00000       0.00000       0.00000       0.00000  
       2         2         1      2012    recall           pt00014    1387.58841       0.01543       2.21202       0.26500      14.61846       0.26500       0.00000       1.12373       0.31887       6.91150       0.00000       0.00000       0.00000       0.00000       0.00000       0.00000       0.00000       0.00000  
       3         3         1      2012    recall           pt00014    1387.58841       0.01543       2.21202       0.26500      14.61846       0.26500       0.00000       1.12373       0.31887       6.91150       0.00000       0.00000       0.00000       0.00000       0.00000       0.00000       0.00000       0.00000  
       4         4         1      2012    recall           pt00014    1387.58841       0.01543       2.21202       0.26500      14.61846       0.26500       0.00000       1.12373       0.31887       6.91150       0.00000       0.00000       0.00000       0.00000       0.00000       0.00000       0.00000       0.00000  
       5         5         1      2012    recall           pt00014    1387.58841       0.01543       2.21202       0.26500      14.61846       0.26500       0.00000       1.12373       0.31887       6.91150       0.00000       0.00000       0.00000       0.00000       0.00000       0.00000       0.00000       0.00000  
       6         6         1      2012    recall           pt00014    1387.58841       0.01543       2.21202       0.26500      14.61846       0.26500       0.00000       1.12373       0.31887       6.91150       0.00000       0.00000       0.00000       0.00000       0.00000       0.00000       0.00000       0.00000  
       7         7         1      2012    recall           pt00014    1387.58841       0.01543       2.21202       0.26500      14.61846       0.26500       0.00000       1.12373       0.31887       6.91150       0.00000       0.00000       0.00000       0.00000       0.00000       0.00000       0.00000       0.00000  
       8         8         1      2012    recall           pt00014    1387.58841       0.01543       2.21202       0.26500      14.61846       0.26500       0.00000       1.12373       0.31887       6.91150       0.00000       0.00000       0.00000       0.00000       0.00000       0.00000       0.00000       0.00000  
       9         9         1      2012    recall           pt00014    1387.58841       0.01543       2.21202       0.26500      14.61846       0.26500       0.00000       1.12373       0.31887       6.91150       0.00000       0.00000       0.00000       0.00000       0.00000       0.00000       0.00000       0.00000  
      10        10         1      2012    recall           pt00014    1387.58841       0.01543       2.21202       0.26500      14.61846       0.26500       0.00000       1.12373       0.31887       6.91150       0.00000       0.00000       0.00000       0.00000       0.00000       0.00000       0.00000       0.00000  
      11        11         1      2012    recall           pt00014    1387.58841       0.01543       2.21202       0.26500      14.61846       0.26500       0.00000       1.12373       0.31887       6.91150       0.00000       0.00000       0.00000       0.00000       0.00000       0.00000       0.00000       0.00000  
      12        12         1      2012    recall           pt00014    1387.58841       0.01543       2.21202       0.26500      14.61846       0.26500       0.00000       1.12373       0.31887       6.91150       0.00000       0.00000       0.00000       0.00000       0.00000       0.00000       0.00000       0.00000  
       1         1         1      2013    recall           pt00014       0.00000       0.00000       0.00000       0.00000       0.00000       0.00000       0.00000       0.00000       0.00000       0.00000       0.00000       0.00000       0.00000       0.00000       0.00000       0.00000       0.00000       0.00000  
       2         2         1      2013    recall           pt00014       0.00000       0.00000       0.00000       0.00000       0.00000       0.00000       0.00000       0.00000       0.00000       0.00000       0.00000       0.00000       0.00000       0.00000       0.00000       0.00000       0.00000       0.00000  
       3         3         1      2013    recall           pt00014       0.00000       0.00000       0.00000       0.00000       0.00000       0.00000       0.00000       0.00000       0.00000       0.00000       0.00000       0.00000       0.00000       0.00000       0.00000       0.00000       0.00000       0.00000  
       4         4         1      2013    recall           pt00014       0.00000       0.00000       0.00000       0.00000       0.00000       0.00000       0.00000       0.00000       0.00000       0.00000       0.00000       0.00000       0.00000       0.00000       0.00000       0.00000       0.00000       0.00000  
       5         5         1      2013    recall           pt00014       0.00000       0.00000       0.00000       0.00000       0.00000       0.00000       0.00000       0.00000       0.00000       0.00000       0.00000       0.00000       0.00000       0.00000       0.00000       0.00000       0.00000       0.00000  
       6         6         1      2013    recall           pt00014       0.00000       0.00000       0.00000       0.00000       0.00000       0.00000       0.00000       0.00000       0.00000       0.00000       0.00000       0.00000       0.00000       0.00000       0.00000       0.00000       0.00000       0.00000  
       7         7         1      2013    recall           pt00014       0.00000       0.00000       0.00000       0.00000       0.00000       0.00000       0.00000       0.00000       0.00000       0.00000       0.00000       0.00000       0.00000       0.00000       0.00000       0.00000       0.00000       0.00000  
       8         8         1      2013    recall           pt00014       0.00000       0.00000       0.00000       0.00000       0.00000       0.00000       0.00000       0.00000       0.00000       0.00000       0.00000       0.00000       0.00000       0.00000       0.00000       0.00000       0.00000       0.00000  
       9         9         1      2013    recall           pt00014       0.00000       0.00000       0.00000       0.00000       0.00000       0.00000       0.00000       0.00000       0.00000       0.00000       0.00000       0.00000       0.00000       0.00000       0.00000       0.00000       0.00000       0.00000  
      10        10         1      2013    recall           pt00014       0.00000       0.00000       0.00000       0.00000       0.00000       0.00000       0.00000       0.00000       0.00000       0.00000       0.00000       0.00000       0.00000       0.00000       0.00000       0.00000       0.00000       0.00000  
      11        11         1      2013    recall           pt00014       0.00000       0.00000       0.00000       0.00000       0.00000       0.00000       0.00000       0.00000       0.00000       0.00000       0.00000       0.00000       0.00000       0.00000       0.00000       0.00000       0.00000       0.00000  
      12        12         1      2013    recall           pt00014       0.00000       0.00000       0.00000       0.00000       0.00000       0.00000       0.00000       0.00000       0.00000       0.00000       0.00000       0.00000       0.00000       0.00000       0.00000       0.00000       0.00000       0.00000  
       1         1         1      2014    recall           pt00014       0.00000       0.00000       0.00000       0.00000       0.00000       0.00000       0.00000       0.00000       0.00000       0.00000       0.00000       0.00000       0.00000       0.00000       0.00000       0.00000       0.00000       0.00000  
       2         2         1      2014    recall           pt00014       0.00000       0.00000       0.00000       0.00000       0.00000       0.00000       0.00000       0.00000       0.00000       0.00000       0.00000       0.00000       0.00000       0.00000       0.00000       0.00000       0.00000       0.00000  
       3         3         1      2014    recall           pt00014       0.00000       0.00000       0.00000       0.00000       0.00000       0.00000       0.00000       0.00000       0.00000       0.00000       0.00000       0.00000       0.00000       0.00000       0.00000       0.00000       0.00000       0.00000  
       4         4         1      2014    recall           pt00014       0.00000       0.00000       0.00000       0.00000       0.00000       0.00000       0.00000       0.00000       0.00000       0.00000       0.00000       0.00000       0.00000       0.00000       0.00000       0.00000       0.00000       0.00000  
       5         5         1      2014    recall           pt00014       0.00000       0.00000       0.00000       0.00000       0.00000       0.00000       0.00000       0.00000       0.00000       0.00000       0.00000       0.00000       0.00000       0.00000       0.00000       0.00000       0.00000       0.00000  
       6         6         1      2014    recall           pt00014       0.00000       0.00000       0.00000       0.00000       0.00000       0.00000       0.00000       0.00000       0.00000       0.00000       0.00000       0.00000       0.00000       0.00000       0.00000       0.00000       0.00000       0.00000  
       7         7         1      2014    recall           pt00014       0.00000       0.00000       0.00000       0.00000       0.00000       0.00000       0.00000       0.00000       0.00000       0.00000       0.00000       0.00000       0.00000       0.00000       0.00000       0.00000       0.00000       0.00000  
       8         8         1      2014    recall           pt00014       0.00000       0.00000       0.00000       0.00000       0.00000       0.00000       0.00000       0.00000       0.00000       0.00000       0.00000       0.00000       0.00000       0.00000       0.00000       0.00000       0.00000       0.00000  
[...]
      11        11         1      2014    recall           pt00014       0.00000       0.00000       0.00000       0.00000       0.00000       0.00000       0.00000       0.00000       0.00000       0.00000       0.00000       0.00000       0.00000       0.00000       0.00000       0.00000       0.00000       0.00000  
      12        12         1      2014    recall           pt00014       0.00000       0.00000       0.00000       0.00000       0.00000       0.00000       0.00000       0.00000       0.00000       0.00000       0.00000       0.00000       0.00000       0.00000       0.00000       0.00000       0.00000       0.00000  
       1         1         1      2015    recall           pt00014       0.00000       0.00000       0.00000       0.00000       0.00000       0.00000       0.00000       0.00000       0.00000       0.00000       0.00000       0.00000       0.00000       0.00000       0.00000       0.00000       0.00000       0.00000  
       2         2         1      2015    recall           pt00014       0.00000       0.00000       0.00000       0.00000       0.00000       0.00000       0.00000       0.00000       0.00000       0.00000       0.00000       0.00000       0.00000       0.00000       0.00000       0.00000       0.00000       0.00000  
       3         3         1      2015    recall           pt00014       0.00000       0.00000       0.00000       0.00000       0.00000       0.00000       0.00000       0.00000       0.00000       0.00000       0.00000       0.00000       0.00000       0.00000       0.00000       0.00000       0.00000       0.00000  
       4         4         1      2015    recall           pt00014       0.00000       0.00000       0.00000       0.00000       0.00000       0.00000       0.00000       0.00000       0.00000       0.00000       0.00000       0.00000       0.00000       0.00000       0.00000       0.00000       0.00000       0.00000  
       5         5         1      2015    recall           pt00014       0.00000       0.00000       0.00000       0.00000       0.00000       0.00000       0.00000       0.00000       0.00000       0.00000       0.00000       0.00000       0.00000       0.00000       0.00000       0.00000       0.00000       0.00000  
       6         6         1      2015    recall           pt00014       0.00000       0.00000       0.00000       0.00000       0.00000       0.00000       0.00000       0.00000       0.00000       0.00000       0.00000       0.00000       0.00000       0.00000       0.00000       0.00000       0.00000       0.00000  
       7         7         1      2015    recall           pt00014       0.00000       0.00000       0.00000       0.00000       0.00000       0.00000       0.00000       0.00000       0.00000       0.00000       0.00000       0.00000       0.00000       0.00000       0.00000       0.00000       0.00000       0.00000  
       8         8         1      2015    recall           pt00014       0.00000       0.00000       0.00000       0.00000       0.00000       0.00000       0.00000       0.00000       0.00000       0.00000       0.00000       0.00000       0.00000       0.00000       0.00000       0.00000       0.00000       0.00000  
       9         9         1      2015    recall           pt00014       0.00000       0.00000       0.00000       0.00000       0.00000       0.00000       0.00000       0.00000       0.00000       0.00000       0.00000       0.00000       0.00000       0.00000       0.00000       0.00000       0.00000       0.00000  
      10        10         1      2015    recall           pt00014       0.00000       0.00000       0.00000       0.00000       0.00000       0.00000       0.00000       0.00000       0.00000       0.00000       0.00000       0.00000       0.00000       0.00000       0.00000       0.00000       0.00000       0.00000  
      11        11         1      2015    recall           pt00014       0.00000       0.00000       0.00000       0.00000       0.00000       0.00000       0.00000       0.00000       0.00000       0.00000       0.00000       0.00000       0.00000       0.00000       0.00000       0.00000       0.00000       0.00000  
      12        12         1      2015    recall           pt00014       0.00000       0.00000       0.00000       0.00000       0.00000       0.00000       0.00000       0.00000       0.00000       0.00000       0.00000       0.00000       0.00000       0.00000       0.00000       0.00000       0.00000       0.00000  
       1         1         1      2016    recall           pt00014       0.00000       0.00000       0.00000       0.00000       0.00000       0.00000       0.00000       0.00000       0.00000       0.00000       0.00000       0.00000       0.00000       0.00000       0.00000       0.00000       0.00000       0.00000  
       2         2         1      2016    recall           pt00014       0.00000       0.00000       0.00000       0.00000       0.00000       0.00000       0.00000       0.00000       0.00000       0.00000       0.00000       0.00000       0.00000       0.00000       0.00000       0.00000       0.00000       0.00000  
       3         3         1      2016    recall           pt00014       0.00000       0.00000       0.00000       0.00000       0.00000       0.00000       0.00000       0.00000       0.00000       0.00000       0.00000       0.00000       0.00000       0.00000       0.00000       0.00000       0.00000       0.00000  
       4         4         1      2016    recall           pt00014       0.00000       0.00000       0.00000       0.00000       0.00000       0.00000       0.00000       0.00000       0.00000       0.00000       0.00000       0.00000       0.00000       0.00000       0.00000       0.00000       0.00000       0.00000  
       5         5         1      2016    recall           pt00014       0.00000       0.00000       0.00000       0.00000       0.00000       0.00000       0.00000       0.00000       0.00000       0.00000       0.00000       0.00000       0.00000       0.00000       0.00000       0.00000       0.00000       0.00000  
       6         6         1      2016    recall           pt00014       0.00000       0.00000       0.00000       0.00000       0.00000       0.00000       0.00000       0.00000       0.00000       0.00000       0.00000       0.00000       0.00000       0.00000       0.00000       0.00000       0.00000       0.00000  
       7         7         1      2016    recall           pt00014       0.00000       0.00000       0.00000       0.00000       0.00000       0.00000       0.00000       0.00000       0.00000       0.00000       0.00000       0.00000       0.00000       0.00000       0.00000       0.00000       0.00000       0.00000  
       8         8         1      2016    recall           pt00014       0.00000       0.00000       0.00000       0.00000       0.00000       0.00000       0.00000       0.00000       0.00000       0.00000       0.00000       0.00000       0.00000       0.00000       0.00000       0.00000       0.00000       0.00000  
       9         9         1      2016    recall           pt00014       0.00000       0.00000       0.00000       0.00000       0.00000       0.00000       0.00000       0.00000       0.00000       0.00000       0.00000       0.00000       0.00000       0.00000       0.00000       0.00000       0.00000       0.00000  
      10        10         1      2016    recall           pt00014       0.00000       0.00000       0.00000       0.00000       0.00000       0.00000       0.00000       0.00000       0.00000       0.00000       0.00000       0.00000       0.00000       0.00000       0.00000       0.00000       0.00000       0.00000  
      11        11         1      2016    recall           pt00014       0.00000       0.00000       0.00000       0.00000       0.00000       0.00000       0.00000       0.00000       0.00000       0.00000       0.00000       0.00000       0.00000       0.00000       0.00000       0.00000       0.00000       0.00000  
      12        12         1      2016    recall           pt00014       0.00000       0.00000       0.00000       0.00000       0.00000       0.00000       0.00000       0.00000       0.00000       0.00000       0.00000       0.00000       0.00000       0.00000       0.00000       0.00000       0.00000       0.00000  
       1         1         1      2017    recall           pt00014       0.00000       0.00000       0.00000       0.00000       0.00000       0.00000       0.00000       0.00000       0.00000       0.00000       0.00000       0.00000       0.00000       0.00000       0.00000       0.00000       0.00000       0.00000  
       2         2         1      2017    recall           pt00014       0.00000       0.00000       0.00000       0.00000       0.00000       0.00000       0.00000       0.00000       0.00000       0.00000       0.00000       0.00000       0.00000       0.00000       0.00000       0.00000       0.00000       0.00000  
       3         3         1      2017    recall           pt00014       0.00000       0.00000       0.00000       0.00000       0.00000       0.00000       0.00000       0.00000       0.00000       0.00000       0.00000       0.00000       0.00000       0.00000       0.00000       0.00000       0.00000       0.00000  
       4         4         1      2017    recall           pt00014       0.00000       0.00000       0.00000       0.00000       0.00000       0.00000       0.00000       0.00000       0.00000       0.00000       0.00000       0.00000       0.00000       0.00000       0.00000       0.00000       0.00000       0.00000  
       5         5         1      2017    recall           pt00014       0.00000       0.00000       0.00000       0.00000       0.00000       0.00000       0.00000       0.00000       0.00000       0.00000       0.00000       0.00000       0.00000       0.00000       0.00000       0.00000       0.00000       0.00000  
       6         6         1      2017    recall           pt00014       0.00000       0.00000       0.00000       0.00000       0.00000       0.00000       0.00000       0.00000       0.00000       0.00000       0.00000       0.00000       0.00000       0.00000       0.00000       0.00000       0.00000       0.00000  
       7         7         1      2017    recall           pt00014       0.00000       0.00000       0.00000       0.00000       0.00000       0.00000       0.00000       0.00000       0.00000       0.00000       0.00000       0.00000       0.00000       0.00000       0.00000       0.00000       0.00000       0.00000  
       8         8         1      2017    recall           pt00014       0.00000       0.00000       0.00000       0.00000       0.00000       0.00000       0.00000       0.00000       0.00000       0.00000       0.00000       0.00000       0.00000       0.00000       0.00000       0.00000       0.00000       0.00000  
       9         9         1      2017    recall           pt00014       0.00000       0.00000       0.00000       0.00000       0.00000       0.00000       0.00000       0.00000       0.00000       0.00000       0.00000       0.00000       0.00000       0.00000       0.00000       0.00000       0.00000       0.00000  
      10        10         1      2017    recall           pt00014       0.00000       0.00000       0.00000       0.00000       0.00000       0.00000       0.00000       0.00000       0.00000       0.00000       0.00000       0.00000       0.00000       0.00000       0.00000       0.00000       0.00000       0.00000  
      11        11         1      2017    recall           pt00014       0.00000       0.00000       0.00000       0.00000       0.00000       0.00000       0.00000       0.00000       0.00000       0.00000       0.00000       0.00000       0.00000       0.00000       0.00000       0.00000       0.00000       0.00000  
      12        12         1      2017    recall           pt00014       0.00000       0.00000       0.00000       0.00000       0.00000       0.00000       0.00000       0.00000       0.00000       0.00000       0.00000       0.00000       0.00000       0.00000       0.00000       0.00000       0.00000       0.00000  
       1         1         1      2018    recall           pt00014       0.00000       0.00000       0.00000       0.00000       0.00000       0.00000       0.00000       0.00000       0.00000       0.00000       0.00000       0.00000       0.00000       0.00000       0.00000       0.00000       0.00000       0.00000  
       2         2         1      2018    recall           pt00014       0.00000       0.00000       0.00000       0.00000       0.00000       0.00000       0.00000       0.00000       0.00000       0.00000       0.00000       0.00000       0.00000       0.00000       0.00000       0.00000       0.00000       0.00000  
       3         3         1      2018    recall           pt00014       0.00000       0.00000       0.00000       0.00000       0.00000       0.00000       0.00000       0.00000       0.00000       0.00000       0.00000       0.00000       0.00000       0.00000       0.00000       0.00000       0.00000       0.00000  
       4         4         1      2018    recall           pt00014       0.00000       0.00000       0.00000       0.00000       0.00000       0.00000       0.00000       0.00000       0.00000       0.00000       0.00000       0.00000       0.00000       0.00000       0.00000       0.00000       0.00000       0.00000  
       5         5         1      2018    recall           pt00014       0.00000       0.00000       0.00000       0.00000       0.00000       0.00000       0.00000       0.00000       0.00000       0.00000       0.00000       0.00000       0.00000       0.00000       0.00000       0.00000       0.00000       0.00000  
       6         6         1      2018    recall           pt00014       0.00000       0.00000       0.00000       0.00000       0.00000       0.00000       0.00000       0.00000       0.00000       0.00000       0.00000       0.00000       0.00000       0.00000       0.00000       0.00000       0.00000       0.00000  
       7         7         1      2018    recall           pt00014       0.00000       0.00000       0.00000       0.00000       0.00000       0.00000       0.00000       0.00000       0.00000       0.00000       0.00000       0.00000       0.00000       0.00000       0.00000       0.00000       0.00000       0.00000  
       8         8         1      2018    recall           pt00014       0.00000       0.00000       0.00000       0.00000       0.00000       0.00000       0.00000       0.00000       0.00000       0.00000       0.00000       0.00000       0.00000       0.00000       0.00000       0.00000       0.00000       0.00000  
       9         9         1      2018    recall           pt00014       0.00000       0.00000       0.00000       0.00000       0.00000       0.00000       0.00000       0.00000       0.00000       0.00000       0.00000       0.00000       0.00000       0.00000       0.00000       0.00000       0.00000       0.00000  
      10        10         1      2018    recall           pt00014       0.00000       0.00000       0.00000       0.00000       0.00000       0.00000       0.00000       0.00000       0.00000       0.00000       0.00000       0.00000       0.00000       0.00000       0.00000       0.00000       0.00000       0.00000  
      11        11         1      2018    recall           pt00014       0.00000       0.00000       0.00000       0.00000       0.00000       0.00000       0.00000       0.00000       0.00000       0.00000       0.00000       0.00000       0.00000       0.00000       0.00000       0.00000       0.00000       0.00000  
      12        12         1      2018    recall           pt00014       0.00000       0.00000       0.00000       0.00000       0.00000       0.00000       0.00000       0.00000       0.00000       0.00000       0.00000       0.00000       0.00000       0.00000       0.00000       0.00000       0.00000       0.00000  
       1         1         1      2019    recall           pt00014       0.00000       0.00000       0.00000       0.00000       0.00000       0.00000       0.00000       0.00000       0.00000       0.00000       0.00000       0.00000       0.00000       0.00000       0.00000       0.00000       0.00000       0.00000  
       2         2         1      2019    recall           pt00014       0.00000       0.00000       0.00000       0.00000       0.00000       0.00000       0.00000       0.00000       0.00000       0.00000       0.00000       0.00000       0.00000       0.00000       0.00000       0.00000       0.00000       0.00000  
       3         3         1      2019    recall           pt00014       0.00000       0.00000       0.00000       0.00000       0.00000       0.00000       0.00000       0.00000       0.00000       0.00000       0.00000       0.00000       0.00000       0.00000       0.00000       0.00000       0.00000       0.00000  
       4         4         1      2019    recall           pt00014       0.00000       0.00000       0.00000       0.00000       0.00000       0.00000       0.00000       0.00000       0.00000       0.00000       0.00000       0.00000       0.00000       0.00000       0.00000       0.00000       0.00000       0.00000  
       5         5         1      2019    recall           pt00014       0.00000       0.00000       0.00000       0.00000       0.00000       0.00000       0.00000       0.00000       0.00000       0.00000       0.00000       0.00000       0.00000       0.00000       0.00000       0.00000       0.00000       0.00000  
       6         6         1      2019    recall           pt00014       0.00000       0.00000       0.00000       0.00000       0.00000       0.00000       0.00000       0.00000       0.00000       0.00000       0.00000       0.00000       0.00000       0.00000       0.00000       0.00000       0.00000       0.00000  
       7         7         1      2019    recall           pt00014       0.00000       0.00000       0.00000       0.00000       0.00000       0.00000       0.00000       0.00000       0.00000       0.00000       0.00000       0.00000       0.00000       0.00000       0.00000       0.00000       0.00000       0.00000  
       8         8         1      2019    recall           pt00014       0.00000       0.00000       0.00000       0.00000       0.00000       0.00000       0.00000       0.00000       0.00000       0.00000       0.00000       0.00000       0.00000       0.00000       0.00000       0.00000       0.00000       0.00000  
       9         9         1      2019    recall           pt00014       0.00000       0.00000       0.00000       0.00000       0.00000       0.00000       0.00000       0.00000       0.00000       0.00000       0.00000       0.00000       0.00000       0.00000       0.00000       0.00000       0.00000       0.00000  
      10        10         1      2019    recall           pt00014       0.00000       0.00000       0.00000       0.00000       0.00000       0.00000       0.00000       0.00000       0.00000       0.00000       0.00000       0.00000       0.00000       0.00000       0.00000       0.00000       0.00000       0.00000  
      11        11         1      2019    recall           pt00014       0.00000       0.00000       0.00000       0.00000       0.00000       0.00000       0.00000       0.00000       0.00000       0.00000       0.00000       0.00000       0.00000       0.00000       0.00000       0.00000       0.00000       0.00000  
      12        12         1      2019    recall           pt00014       0.00000       0.00000       0.00000       0.00000       0.00000       0.00000       0.00000       0.00000       0.00000       0.00000       0.00000       0.00000       0.00000       0.00000       0.00000       0.00000       0.00000       0.00000  
