recall.rec: written by SWAT+ editor v2.0.0 on 2022-02-14 13:07
26
    jday        mo    day_mo       iyr    ob_typ           ob_name           flo           sed         ptl_n         ptl_p         no3_n         sol_p          chla         nh3_n         no2_n       cbn_bod           oxy          sand          silt          clay        sm_agg        lg_agg        gravel           tmp  
       1         1         1      1994    recall           pt00003       0.00000       0.00000       0.00000       0.00000       0.00000       0.00000       0.00000       0.00000       0.00000       0.00000       0.00000       0.00000       0.00000       0.00000       0.00000       0.00000       0.00000       0.00000  
       2         2         1      1994    recall           pt00003       0.00000       0.00000       0.00000       0.00000       0.00000       0.00000       0.00000       0.00000       0.00000       0.00000       0.00000       0.00000       0.00000       0.00000       0.00000       0.00000       0.00000       0.00000  
       3         3         1      1994    recall           pt00003       0.00000       0.00000       0.00000       0.00000       0.00000       0.00000       0.00000       0.00000       0.00000       0.00000       0.00000       0.00000       0.00000       0.00000       0.00000       0.00000       0.00000       0.00000  
       4         4         1      1994    recall           pt00003       0.00000       0.00000       0.00000       0.00000       0.00000       0.00000       0.00000       0.00000       0.00000       0.00000       0.00000       0.00000       0.00000       0.00000       0.00000       0.00000       0.00000       0.00000  
       5         5         1      1994    recall           pt00003       0.00000       0.00000       0.00000       0.00000       0.00000       0.00000       0.00000       0.00000       0.00000       0.00000       0.00000       0.00000       0.00000       0.00000       0.00000       0.00000       0.00000       0.00000  
       6         6         1      1994    recall           pt00003       0.00000       0.00000       0.00000       0.00000       0.00000       0.00000       0.00000       0.00000       0.00000       0.00000       0.00000       0.00000       0.00000       0.00000       0.00000       0.00000       0.00000       0.00000  
       7         7         1      1994    recall           pt00003       0.00000       0.00000       0.00000       0.00000       0.00000       0.00000       0.00000       0.00000       0.00000       0.00000       0.00000       0.00000       0.00000       0.00000       0.00000       0.00000       0.00000       0.00000  
       8         8         1      1994    recall           pt00003       0.00000       0.00000       0.00000       0.00000       0.00000       0.00000       0.00000       0.00000       0.00000       0.00000       0.00000       0.00000       0.00000       0.00000       0.00000       0.00000       0.00000       0.00000  
       9         9         1      1994    recall           pt00003       0.00000       0.00000       0.00000       0.00000       0.00000       0.00000       0.00000       0.00000       0.00000       0.00000       0.00000       0.00000       0.00000       0.00000       0.00000       0.00000       0.00000       0.00000  
      10        10         1      1994    recall           pt00003       0.00000       0.00000       0.00000       0.00000       0.00000       0.00000       0.00000       0.00000       0.00000       0.00000       0.00000       0.00000       0.00000       0.00000       0.00000       0.00000       0.00000       0.00000  
      11        11         1      1994    recall           pt00003       0.00000       0.00000       0.00000       0.00000       0.00000       0.00000       0.00000       0.00000       0.00000       0.00000       0.00000       0.00000       0.00000       0.00000       0.00000       0.00000       0.00000       0.00000  
      12        12         1      1994    recall           pt00003       0.00000       0.00000       0.00000       0.00000       0.00000       0.00000       0.00000       0.00000       0.00000       0.00000       0.00000       0.00000       0.00000       0.00000       0.00000       0.00000       0.00000       0.00000  
       1         1         1      1995    recall           pt00003       0.00000       0.00000       0.00000       0.00000       0.00000       0.00000       0.00000       0.00000       0.00000       0.00000       0.00000       0.00000       0.00000       0.00000       0.00000       0.00000       0.00000       0.00000  
       2         2         1      1995    recall           pt00003       0.00000       0.00000       0.00000       0.00000       0.00000       0.00000       0.00000       0.00000       0.00000       0.00000       0.00000       0.00000       0.00000       0.00000       0.00000       0.00000       0.00000       0.00000  
       3         3         1      1995    recall           pt00003       0.00000       0.00000       0.00000       0.00000       0.00000       0.00000       0.00000       0.00000       0.00000       0.00000       0.00000       0.00000       0.00000       0.00000       0.00000       0.00000       0.00000       0.00000  
       4         4         1      1995    recall           pt00003       0.00000       0.00000       0.00000       0.00000       0.00000       0.00000       0.00000       0.00000       0.00000       0.00000       0.00000       0.00000       0.00000       0.00000       0.00000       0.00000       0.00000       0.00000  
       5         5         1      1995    recall           pt00003       0.00000       0.00000       0.00000       0.00000       0.00000       0.00000       0.00000       0.00000       0.00000       0.00000       0.00000       0.00000       0.00000       0.00000       0.00000       0.00000       0.00000       0.00000  
       6         6         1      1995    recall           pt00003       0.00000       0.00000       0.00000       0.00000       0.00000       0.00000       0.00000       0.00000       0.00000       0.00000       0.00000       0.00000       0.00000       0.00000       0.00000       0.00000       0.00000       0.00000  
       7         7         1      1995    recall           pt00003       0.00000       0.00000       0.00000       0.00000       0.00000       0.00000       0.00000       0.00000       0.00000       0.00000       0.00000       0.00000       0.00000       0.00000       0.00000       0.00000       0.00000       0.00000  
       8         8         1      1995    recall           pt00003       0.00000       0.00000       0.00000       0.00000       0.00000       0.00000       0.00000       0.00000       0.00000       0.00000       0.00000       0.00000       0.00000       0.00000       0.00000       0.00000       0.00000       0.00000  
       9         9         1      1995    recall           pt00003       0.00000       0.00000       0.00000       0.00000       0.00000       0.00000       0.00000       0.00000       0.00000       0.00000       0.00000       0.00000       0.00000       0.00000       0.00000       0.00000       0.00000       0.00000  
      10        10         1      1995    recall           pt00003       0.00000       0.00000       0.00000       0.00000       0.00000       0.00000       0.00000       0.00000       0.00000       0.00000       0.00000       0.00000       0.00000       0.00000       0.00000       0.00000       0.00000       0.00000  
      11        11         1      1995    recall           pt00003       0.00000       0.00000       0.00000       0.00000       0.00000       0.00000       0.00000       0.00000       0.00000       0.00000       0.00000       0.00000       0.00000       0.00000       0.00000       0.00000       0.00000       0.00000  
      12        12         1      1995    recall           pt00003       0.00000       0.00000       0.00000       0.00000       0.00000       0.00000       0.00000       0.00000       0.00000       0.00000       0.00000       0.00000       0.00000       0.00000       0.00000       0.00000       0.00000       0.00000  
       1         1         1      1996    recall           pt00003       0.00000       0.00000       0.00000       0.00000       0.00000       0.00000       0.00000       0.00000       0.00000       0.00000       0.00000       0.00000       0.00000       0.00000       0.00000       0.00000       0.00000       0.00000  
       2         2         1      1996    recall           pt00003       0.00000       0.00000       0.00000       0.00000       0.00000       0.00000       0.00000       0.00000       0.00000       0.00000       0.00000       0.00000       0.00000       0.00000       0.00000       0.00000       0.00000       0.00000  
       3         3         1      1996    recall           pt00003       0.00000       0.00000       0.00000       0.00000       0.00000       0.00000       0.00000       0.00000       0.00000       0.00000       0.00000       0.00000       0.00000       0.00000       0.00000       0.00000       0.00000       0.00000  
       4         4         1      1996    recall           pt00003       0.00000       0.00000       0.00000       0.00000       0.00000       0.00000       0.00000       0.00000       0.00000       0.00000       0.00000       0.00000       0.00000       0.00000       0.00000       0.00000       0.00000       0.00000  
       5         5         1      1996    recall           pt00003       0.00000       0.00000       0.00000       0.00000       0.00000       0.00000       0.00000       0.00000       0.00000       0.00000       0.00000       0.00000       0.00000       0.00000       0.00000       0.00000       0.00000       0.00000  
       6         6         1      1996    recall           pt00003       0.00000       0.00000       0.00000       0.00000       0.00000       0.00000       0.00000       0.00000       0.00000       0.00000       0.00000       0.00000       0.00000       0.00000       0.00000       0.00000       0.00000       0.00000  
       7         7         1      1996    recall           pt00003       0.00000       0.00000       0.00000       0.00000       0.00000       0.00000       0.00000       0.00000       0.00000       0.00000       0.00000       0.00000       0.00000       0.00000       0.00000       0.00000       0.00000       0.00000  
       8         8         1      1996    recall           pt00003       0.00000       0.00000       0.00000       0.00000       0.00000       0.00000       0.00000       0.00000       0.00000       0.00000       0.00000       0.00000       0.00000       0.00000       0.00000       0.00000       0.00000       0.00000  
       9         9         1      1996    recall           pt00003       0.00000       0.00000       0.00000       0.00000       0.00000       0.00000       0.00000       0.00000       0.00000       0.00000       0.00000       0.00000       0.00000       0.00000       0.00000       0.00000       0.00000       0.00000  
      10        10         1      1996    recall           pt00003       0.00000       0.00000       0.00000       0.00000       0.00000       0.00000       0.00000       0.00000       0.00000       0.00000       0.00000       0.00000       0.00000       0.00000       0.00000       0.00000       0.00000       0.00000  
      11        11         1      1996    recall           pt00003       0.00000       0.00000       0.00000       0.00000       0.00000       0.00000       0.00000       0.00000       0.00000       0.00000       0.00000       0.00000       0.00000       0.00000       0.00000       0.00000       0.00000       0.00000  
      12        12         1      1996    recall           pt00003       0.00000       0.00000       0.00000       0.00000       0.00000       0.00000       0.00000       0.00000       0.00000       0.00000       0.00000       0.00000       0.00000       0.00000       0.00000       0.00000       0.00000       0.00000  
       1         1         1      1997    recall           pt00003      82.95865       0.00118       1.19460       0.16197       0.19910       0.38161       0.00000       1.42689       0.03318       1.35894       0.00000       0.00000       0.00000       0.00000       0.00000       0.00000       0.00000       0.00000  
       2         2         1      1997    recall           pt00003      82.95865       0.00118       1.19460       0.16197       0.19910       0.38161       0.00000       1.42689       0.03318       1.35894       0.00000       0.00000       0.00000       0.00000       0.00000       0.00000       0.00000       0.00000  
       3         3         1      1997    recall           pt00003      82.95865       0.00118       1.19460       0.16197       0.19910       0.38161       0.00000       1.42689       0.03318       1.35894       0.00000       0.00000       0.00000       0.00000       0.00000       0.00000       0.00000       0.00000  
       4         4         1      1997    recall           pt00003      82.95865       0.00118       1.19460       0.16197       0.19910       0.38161       0.00000       1.42689       0.03318       1.35894       0.00000       0.00000       0.00000       0.00000       0.00000       0.00000       0.00000       0.00000  
       5         5         1      1997    recall           pt00003      82.95865       0.00118       1.19460       0.16197       0.19910       0.38161       0.00000       1.42689       0.03318       1.35894       0.00000       0.00000       0.00000       0.00000       0.00000       0.00000       0.00000       0.00000  
       6         6         1      1997    recall           pt00003      82.95865       0.00118       1.19460       0.16197       0.19910       0.38161       0.00000       1.42689       0.03318       1.35894       0.00000       0.00000       0.00000       0.00000       0.00000       0.00000       0.00000       0.00000  
       7         7         1      1997    recall           pt00003      82.95865       0.00118       1.19460       0.16197       0.19910       0.38161       0.00000       1.42689       0.03318       1.35894       0.00000       0.00000       0.00000       0.00000       0.00000       0.00000       0.00000       0.00000  
       8         8         1      1997    recall           pt00003      82.95865       0.00118       1.19460       0.16197       0.19910       0.38161       0.00000       1.42689       0.03318       1.35894       0.00000       0.00000       0.00000       0.00000       0.00000       0.00000       0.00000       0.00000  
       9         9         1      1997    recall           pt00003      82.95865       0.00118       1.19460       0.16197       0.19910       0.38161       0.00000       1.42689       0.03318       1.35894       0.00000       0.00000       0.00000       0.00000       0.00000       0.00000       0.00000       0.00000  
      10        10         1      1997    recall           pt00003      82.95865       0.00118       1.19460       0.16197       0.19910       0.38161       0.00000       1.42689       0.03318       1.35894       0.00000       0.00000       0.00000       0.00000       0.00000       0.00000       0.00000       0.00000  
      11        11         1      1997    recall           pt00003      82.95865       0.00118       1.19460       0.16197       0.19910       0.38161       0.00000       1.42689       0.03318       1.35894       0.00000       0.00000       0.00000       0.00000       0.00000       0.00000       0.00000       0.00000  
      12        12         1      1997    recall           pt00003      82.95865       0.00118       1.19460       0.16197       0.19910       0.38161       0.00000       1.42689       0.03318       1.35894       0.00000       0.00000       0.00000       0.00000       0.00000       0.00000       0.00000       0.00000  
       1         1         1      1998    recall           pt00003      81.58970       0.00103       1.78192       0.28230       0.19582       0.25293       0.00000       0.81590       0.01632       1.33807       0.00000       0.00000       0.00000       0.00000       0.00000       0.00000       0.00000       0.00000  
       2         2         1      1998    recall           pt00003      81.58970       0.00103       1.78192       0.28230       0.19582       0.25293       0.00000       0.81590       0.01632       1.33807       0.00000       0.00000       0.00000       0.00000       0.00000       0.00000       0.00000       0.00000  
       3         3         1      1998    recall           pt00003      81.58970       0.00103       1.78192       0.28230       0.19582       0.25293       0.00000       0.81590       0.01632       1.33807       0.00000       0.00000       0.00000       0.00000       0.00000       0.00000       0.00000       0.00000  
       4         4         1      1998    recall           pt00003      81.58970       0.00103       1.78192       0.28230       0.19582       0.25293       0.00000       0.81590       0.01632       1.33807       0.00000       0.00000       0.00000       0.00000       0.00000       0.00000       0.00000       0.00000  
       5         5         1      1998    recall           pt00003      81.58970       0.00103       1.78192       0.28230       0.19582       0.25293       0.00000       0.81590       0.01632       1.33807       0.00000       0.00000       0.00000       0.00000       0.00000       0.00000       0.00000       0.00000  
       6         6         1      1998    recall           pt00003      81.58970       0.00103       1.78192       0.28230       0.19582       0.25293       0.00000       0.81590       0.01632       1.33807       0.00000       0.00000       0.00000       0.00000       0.00000       0.00000       0.00000       0.00000  
       7         7         1      1998    recall           pt00003      81.58970       0.00103       1.78192       0.28230       0.19582       0.25293       0.00000       0.81590       0.01632       1.33807       0.00000       0.00000       0.00000       0.00000       0.00000       0.00000       0.00000       0.00000  
       8         8         1      1998    recall           pt00003      81.58970       0.00103       1.78192       0.28230       0.19582       0.25293       0.00000       0.81590       0.01632       1.33807       0.00000       0.00000       0.00000       0.00000       0.00000       0.00000       0.00000       0.00000  
       9         9         1      1998    recall           pt00003      81.58970       0.00103       1.78192       0.28230       0.19582       0.25293       0.00000       0.81590       0.01632       1.33807       0.00000       0.00000       0.00000       0.00000       0.00000       0.00000       0.00000       0.00000  
      10        10         1      1998    recall           pt00003      81.58970       0.00103       1.78192       0.28230       0.19582       0.25293       0.00000       0.81590       0.01632       1.33807       0.00000       0.00000       0.00000       0.00000       0.00000       0.00000       0.00000       0.00000  
      11        11         1      1998    recall           pt00003      81.58970       0.00103       1.78192       0.28230       0.19582       0.25293       0.00000       0.81590       0.01632       1.33807       0.00000       0.00000       0.00000       0.00000       0.00000       0.00000       0.00000       0.00000  
      12        12         1      1998    recall           pt00003      81.58970       0.00103       1.78192       0.28230       0.19582       0.25293       0.00000       0.81590       0.01632       1.33807       0.00000       0.00000       0.00000       0.00000       0.00000       0.00000       0.00000       0.00000  
       1         1         1      1999    recall           pt00003      65.98361       0.00067       1.12832       0.11217       0.23754       0.23094       0.00000       0.42889       0.00660       0.85779       0.00000       0.00000       0.00000       0.00000       0.00000       0.00000       0.00000       0.00000  
       2         2         1      1999    recall           pt00003      65.98361       0.00067       1.12832       0.11217       0.23754       0.23094       0.00000       0.42889       0.00660       0.85779       0.00000       0.00000       0.00000       0.00000       0.00000       0.00000       0.00000       0.00000  
       3         3         1      1999    recall           pt00003      65.98361       0.00067       1.12832       0.11217       0.23754       0.23094       0.00000       0.42889       0.00660       0.85779       0.00000       0.00000       0.00000       0.00000       0.00000       0.00000       0.00000       0.00000  
       4         4         1      1999    recall           pt00003      65.98361       0.00067       1.12832       0.11217       0.23754       0.23094       0.00000       0.42889       0.00660       0.85779       0.00000       0.00000       0.00000       0.00000       0.00000       0.00000       0.00000       0.00000  
       5         5         1      1999    recall           pt00003      65.98361       0.00067       1.12832       0.11217       0.23754       0.23094       0.00000       0.42889       0.00660       0.85779       0.00000       0.00000       0.00000       0.00000       0.00000       0.00000       0.00000       0.00000  
       6         6         1      1999    recall           pt00003      65.98361       0.00067       1.12832       0.11217       0.23754       0.23094       0.00000       0.42889       0.00660       0.85779       0.00000       0.00000       0.00000       0.00000       0.00000       0.00000       0.00000       0.00000  
       7         7         1      1999    recall           pt00003      65.98361       0.00067       1.12832       0.11217       0.23754       0.23094       0.00000       0.42889       0.00660       0.85779       0.00000       0.00000       0.00000       0.00000       0.00000       0.00000       0.00000       0.00000  
       8         8         1      1999    recall           pt00003      65.98361       0.00067       1.12832       0.11217       0.23754       0.23094       0.00000       0.42889       0.00660       0.85779       0.00000       0.00000       0.00000       0.00000       0.00000       0.00000       0.00000       0.00000  
       9         9         1      1999    recall           pt00003      65.98361       0.00067       1.12832       0.11217       0.23754       0.23094       0.00000       0.42889       0.00660       0.85779       0.00000       0.00000       0.00000       0.00000       0.00000       0.00000       0.00000       0.00000  
      10        10         1      1999    recall           pt00003      65.98361       0.00067       1.12832       0.11217       0.23754       0.23094       0.00000       0.42889       0.00660       0.85779       0.00000       0.00000       0.00000       0.00000       0.00000       0.00000       0.00000       0.00000  
      11        11         1      1999    recall           pt00003      65.98361       0.00067       1.12832       0.11217       0.23754       0.23094       0.00000       0.42889       0.00660       0.85779       0.00000       0.00000       0.00000       0.00000       0.00000       0.00000       0.00000       0.00000  
      12        12         1      1999    recall           pt00003      65.98361       0.00067       1.12832       0.11217       0.23754       0.23094       0.00000       0.42889       0.00660       0.85779       0.00000       0.00000       0.00000       0.00000       0.00000       0.00000       0.00000       0.00000  
       1         1         1      2000    recall           pt00003      55.85335       0.00044       1.23101       0.18208       0.21224       0.20666       0.00000       0.58087       0.01676       0.97185       0.00000       0.00000       0.00000       0.00000       0.00000       0.00000       0.00000       0.00000  
       2         2         1      2000    recall           pt00003      55.85335       0.00044       1.23101       0.18208       0.21224       0.20666       0.00000       0.58087       0.01676       0.97185       0.00000       0.00000       0.00000       0.00000       0.00000       0.00000       0.00000       0.00000  
       3         3         1      2000    recall           pt00003      55.85335       0.00044       1.23101       0.18208       0.21224       0.20666       0.00000       0.58087       0.01676       0.97185       0.00000       0.00000       0.00000       0.00000       0.00000       0.00000       0.00000       0.00000  
       4         4         1      2000    recall           pt00003      55.85335       0.00044       1.23101       0.18208       0.21224       0.20666       0.00000       0.58087       0.01676       0.97185       0.00000       0.00000       0.00000       0.00000       0.00000       0.00000       0.00000       0.00000  
       5         5         1      2000    recall           pt00003      55.85335       0.00044       1.23101       0.18208       0.21224       0.20666       0.00000       0.58087       0.01676       0.97185       0.00000       0.00000       0.00000       0.00000       0.00000       0.00000       0.00000       0.00000  
       6         6         1      2000    recall           pt00003      55.85335       0.00044       1.23101       0.18208       0.21224       0.20666       0.00000       0.58087       0.01676       0.97185       0.00000       0.00000       0.00000       0.00000       0.00000       0.00000       0.00000       0.00000  
       7         7         1      2000    recall           pt00003      55.85335       0.00044       1.23101       0.18208       0.21224       0.20666       0.00000       0.58087       0.01676       0.97185       0.00000       0.00000       0.00000       0.00000       0.00000       0.00000       0.00000       0.00000  
       8         8         1      2000    recall           pt00003      55.85335       0.00044       1.23101       0.18208       0.21224       0.20666       0.00000       0.58087       0.01676       0.97185       0.00000       0.00000       0.00000       0.00000       0.00000       0.00000       0.00000       0.00000  
       9         9         1      2000    recall           pt00003      55.85335       0.00044       1.23101       0.18208       0.21224       0.20666       0.00000       0.58087       0.01676       0.97185       0.00000       0.00000       0.00000       0.00000       0.00000       0.00000       0.00000       0.00000  
      10        10         1      2000    recall           pt00003      55.85335       0.00044       1.23101       0.18208       0.21224       0.20666       0.00000       0.58087       0.01676       0.97185       0.00000       0.00000       0.00000       0.00000       0.00000       0.00000       0.00000       0.00000  
      11        11         1      2000    recall           pt00003      55.85335       0.00044       1.23101       0.18208       0.21224       0.20666       0.00000       0.58087       0.01676       0.97185       0.00000       0.00000       0.00000       0.00000       0.00000       0.00000       0.00000       0.00000  
      12        12         1      2000    recall           pt00003      55.85335       0.00044       1.23101       0.18208       0.21224       0.20666       0.00000       0.58087       0.01676       0.97185       0.00000       0.00000       0.00000       0.00000       0.00000       0.00000       0.00000       0.00000  
       1         1         1      2001    recall           pt00003      57.49609       0.00057       1.33046       0.12994       0.14949       0.24723       0.00000       0.48872       0.01150       0.94294       0.00000       0.00000       0.00000       0.00000       0.00000       0.00000       0.00000       0.00000  
       2         2         1      2001    recall           pt00003      57.49609       0.00057       1.33046       0.12994       0.14949       0.24723       0.00000       0.48872       0.01150       0.94294       0.00000       0.00000       0.00000       0.00000       0.00000       0.00000       0.00000       0.00000  
       3         3         1      2001    recall           pt00003      57.49609       0.00057       1.33046       0.12994       0.14949       0.24723       0.00000       0.48872       0.01150       0.94294       0.00000       0.00000       0.00000       0.00000       0.00000       0.00000       0.00000       0.00000  
       4         4         1      2001    recall           pt00003      57.49609       0.00057       1.33046       0.12994       0.14949       0.24723       0.00000       0.48872       0.01150       0.94294       0.00000       0.00000       0.00000       0.00000       0.00000       0.00000       0.00000       0.00000  
       5         5         1      2001    recall           pt00003      57.49609       0.00057       1.33046       0.12994       0.14949       0.24723       0.00000       0.48872       0.01150       0.94294       0.00000       0.00000       0.00000       0.00000       0.00000       0.00000       0.00000       0.00000  
       6         6         1      2001    recall           pt00003      57.49609       0.00057       1.33046       0.12994       0.14949       0.24723       0.00000       0.48872       0.01150       0.94294       0.00000       0.00000       0.00000       0.00000       0.00000       0.00000       0.00000       0.00000  
       7         7         1      2001    recall           pt00003      57.49609       0.00057       1.33046       0.12994       0.14949       0.24723       0.00000       0.48872       0.01150       0.94294       0.00000       0.00000       0.00000       0.00000       0.00000       0.00000       0.00000       0.00000  
       8         8         1      2001    recall           pt00003      57.49609       0.00057       1.33046       0.12994       0.14949       0.24723       0.00000       0.48872       0.01150       0.94294       0.00000       0.00000       0.00000       0.00000       0.00000       0.00000       0.00000       0.00000  
       9         9         1      2001    recall           pt00003      57.49609       0.00057       1.33046       0.12994       0.14949       0.24723       0.00000       0.48872       0.01150       0.94294       0.00000       0.00000       0.00000       0.00000       0.00000       0.00000       0.00000       0.00000  
      10        10         1      2001    recall           pt00003      57.49609       0.00057       1.33046       0.12994       0.14949       0.24723       0.00000       0.48872       0.01150       0.94294       0.00000       0.00000       0.00000       0.00000       0.00000       0.00000       0.00000       0.00000  
      11        11         1      2001    recall           pt00003      57.49609       0.00057       1.33046       0.12994       0.14949       0.24723       0.00000       0.48872       0.01150       0.94294       0.00000       0.00000       0.00000       0.00000       0.00000       0.00000       0.00000       0.00000  
      12        12         1      2001    recall           pt00003      57.49609       0.00057       1.33046       0.12994       0.14949       0.24723       0.00000       0.48872       0.01150       0.94294       0.00000       0.00000       0.00000       0.00000       0.00000       0.00000       0.00000       0.00000  
       1         1         1      2002    recall           pt00003      54.21060       0.00079       1.32003       0.06505       0.17889       0.27105       0.00000       0.23853       0.02711       0.84026       0.00000       0.00000       0.00000       0.00000       0.00000       0.00000       0.00000       0.00000  
       2         2         1      2002    recall           pt00003      54.21060       0.00079       1.32003       0.06505       0.17889       0.27105       0.00000       0.23853       0.02711       0.84026       0.00000       0.00000       0.00000       0.00000       0.00000       0.00000       0.00000       0.00000  
       3         3         1      2002    recall           pt00003      54.21060       0.00079       1.32003       0.06505       0.17889       0.27105       0.00000       0.23853       0.02711       0.84026       0.00000       0.00000       0.00000       0.00000       0.00000       0.00000       0.00000       0.00000  
       4         4         1      2002    recall           pt00003      54.21060       0.00079       1.32003       0.06505       0.17889       0.27105       0.00000       0.23853       0.02711       0.84026       0.00000       0.00000       0.00000       0.00000       0.00000       0.00000       0.00000       0.00000  
       5         5         1      2002    recall           pt00003      54.21060       0.00079       1.32003       0.06505       0.17889       0.27105       0.00000       0.23853       0.02711       0.84026       0.00000       0.00000       0.00000       0.00000       0.00000       0.00000       0.00000       0.00000  
       6         6         1      2002    recall           pt00003      54.21060       0.00079       1.32003       0.06505       0.17889       0.27105       0.00000       0.23853       0.02711       0.84026       0.00000       0.00000       0.00000       0.00000       0.00000       0.00000       0.00000       0.00000  
       7         7         1      2002    recall           pt00003      54.21060       0.00079       1.32003       0.06505       0.17889       0.27105       0.00000       0.23853       0.02711       0.84026       0.00000       0.00000       0.00000       0.00000       0.00000       0.00000       0.00000       0.00000  
       8         8         1      2002    recall           pt00003      54.21060       0.00079       1.32003       0.06505       0.17889       0.27105       0.00000       0.23853       0.02711       0.84026       0.00000       0.00000       0.00000       0.00000       0.00000       0.00000       0.00000       0.00000  
       9         9         1      2002    recall           pt00003      54.21060       0.00079       1.32003       0.06505       0.17889       0.27105       0.00000       0.23853       0.02711       0.84026       0.00000       0.00000       0.00000       0.00000       0.00000       0.00000       0.00000       0.00000  
      10        10         1      2002    recall           pt00003      54.21060       0.00079       1.32003       0.06505       0.17889       0.27105       0.00000       0.23853       0.02711       0.84026       0.00000       0.00000       0.00000       0.00000       0.00000       0.00000       0.00000       0.00000  
      11        11         1      2002    recall           pt00003      54.21060       0.00079       1.32003       0.06505       0.17889       0.27105       0.00000       0.23853       0.02711       0.84026       0.00000       0.00000       0.00000       0.00000       0.00000       0.00000       0.00000       0.00000  
      12        12         1      2002    recall           pt00003      54.21060       0.00079       1.32003       0.06505       0.17889       0.27105       0.00000       0.23853       0.02711       0.84026       0.00000       0.00000       0.00000       0.00000       0.00000       0.00000       0.00000       0.00000  
       1         1         1      2003    recall           pt00003      48.73478       0.00045       0.16570       0.00000       0.28266       0.29241       0.00000       0.45323       0.01949       0.43861       0.00000       0.00000       0.00000       0.00000       0.00000       0.00000       0.00000       0.00000  
       2         2         1      2003    recall           pt00003      48.73478       0.00045       0.16570       0.00000       0.28266       0.29241       0.00000       0.45323       0.01949       0.43861       0.00000       0.00000       0.00000       0.00000       0.00000       0.00000       0.00000       0.00000  
       3         3         1      2003    recall           pt00003      48.73478       0.00045       0.16570       0.00000       0.28266       0.29241       0.00000       0.45323       0.01949       0.43861       0.00000       0.00000       0.00000       0.00000       0.00000       0.00000       0.00000       0.00000  
       4         4         1      2003    recall           pt00003      48.73478       0.00045       0.16570       0.00000       0.28266       0.29241       0.00000       0.45323       0.01949       0.43861       0.00000       0.00000       0.00000       0.00000       0.00000       0.00000       0.00000       0.00000  
       5         5         1      2003    recall           pt00003      48.73478       0.00045       0.16570       0.00000       0.28266       0.29241       0.00000       0.45323       0.01949       0.43861       0.00000       0.00000       0.00000       0.00000       0.00000       0.00000       0.00000       0.00000  
       6         6         1      2003    recall           pt00003      48.73478       0.00045       0.16570       0.00000       0.28266       0.29241       0.00000       0.45323       0.01949       0.43861       0.00000       0.00000       0.00000       0.00000       0.00000       0.00000       0.00000       0.00000  
       7         7         1      2003    recall           pt00003      48.73478       0.00045       0.16570       0.00000       0.28266       0.29241       0.00000       0.45323       0.01949       0.43861       0.00000       0.00000       0.00000       0.00000       0.00000       0.00000       0.00000       0.00000  
       8         8         1      2003    recall           pt00003      48.73478       0.00045       0.16570       0.00000       0.28266       0.29241       0.00000       0.45323       0.01949       0.43861       0.00000       0.00000       0.00000       0.00000       0.00000       0.00000       0.00000       0.00000  
       9         9         1      2003    recall           pt00003      48.73478       0.00045       0.16570       0.00000       0.28266       0.29241       0.00000       0.45323       0.01949       0.43861       0.00000       0.00000       0.00000       0.00000       0.00000       0.00000       0.00000       0.00000  
      10        10         1      2003    recall           pt00003      48.73478       0.00045       0.16570       0.00000       0.28266       0.29241       0.00000       0.45323       0.01949       0.43861       0.00000       0.00000       0.00000       0.00000       0.00000       0.00000       0.00000       0.00000  
      11        11         1      2003    recall           pt00003      48.73478       0.00045       0.16570       0.00000       0.28266       0.29241       0.00000       0.45323       0.01949       0.43861       0.00000       0.00000       0.00000       0.00000       0.00000       0.00000       0.00000       0.00000  
      12        12         1      2003    recall           pt00003      48.73478       0.00045       0.16570       0.00000       0.28266       0.29241       0.00000       0.45323       0.01949       0.43861       0.00000       0.00000       0.00000       0.00000       0.00000       0.00000       0.00000       0.00000  
       1         1         1      2004    recall           pt00003      50.92511       0.00047       0.34069       0.00000       0.20879       0.23935       0.00000       0.38194       0.02037       0.45323       0.00000       0.00000       0.00000       0.00000       0.00000       0.00000       0.00000       0.00000  
       2         2         1      2004    recall           pt00003      50.92511       0.00047       0.34069       0.00000       0.20879       0.23935       0.00000       0.38194       0.02037       0.45323       0.00000       0.00000       0.00000       0.00000       0.00000       0.00000       0.00000       0.00000  
       3         3         1      2004    recall           pt00003      50.92511       0.00047       0.34069       0.00000       0.20879       0.23935       0.00000       0.38194       0.02037       0.45323       0.00000       0.00000       0.00000       0.00000       0.00000       0.00000       0.00000       0.00000  
       4         4         1      2004    recall           pt00003      50.92511       0.00047       0.34069       0.00000       0.20879       0.23935       0.00000       0.38194       0.02037       0.45323       0.00000       0.00000       0.00000       0.00000       0.00000       0.00000       0.00000       0.00000  
       5         5         1      2004    recall           pt00003      50.92511       0.00047       0.34069       0.00000       0.20879       0.23935       0.00000       0.38194       0.02037       0.45323       0.00000       0.00000       0.00000       0.00000       0.00000       0.00000       0.00000       0.00000  
       6         6         1      2004    recall           pt00003      50.92511       0.00047       0.34069       0.00000       0.20879       0.23935       0.00000       0.38194       0.02037       0.45323       0.00000       0.00000       0.00000       0.00000       0.00000       0.00000       0.00000       0.00000  
       7         7         1      2004    recall           pt00003      50.92511       0.00047       0.34069       0.00000       0.20879       0.23935       0.00000       0.38194       0.02037       0.45323       0.00000       0.00000       0.00000       0.00000       0.00000       0.00000       0.00000       0.00000  
       8         8         1      2004    recall           pt00003      50.92511       0.00047       0.34069       0.00000       0.20879       0.23935       0.00000       0.38194       0.02037       0.45323       0.00000       0.00000       0.00000       0.00000       0.00000       0.00000       0.00000       0.00000  
       9         9         1      2004    recall           pt00003      50.92511       0.00047       0.34069       0.00000       0.20879       0.23935       0.00000       0.38194       0.02037       0.45323       0.00000       0.00000       0.00000       0.00000       0.00000       0.00000       0.00000       0.00000  
      10        10         1      2004    recall           pt00003      50.92511       0.00047       0.34069       0.00000       0.20879       0.23935       0.00000       0.38194       0.02037       0.45323       0.00000       0.00000       0.00000       0.00000       0.00000       0.00000       0.00000       0.00000  
      11        11         1      2004    recall           pt00003      50.92511       0.00047       0.34069       0.00000       0.20879       0.23935       0.00000       0.38194       0.02037       0.45323       0.00000       0.00000       0.00000       0.00000       0.00000       0.00000       0.00000       0.00000  
      12        12         1      2004    recall           pt00003      50.92511       0.00047       0.34069       0.00000       0.20879       0.23935       0.00000       0.38194       0.02037       0.45323       0.00000       0.00000       0.00000       0.00000       0.00000       0.00000       0.00000       0.00000  
       1         1         1      2005    recall           pt00003      49.28237       0.00046       0.11976       0.00000       0.18234       0.22177       0.00000       0.42876       0.02464       0.35976       0.00000       0.00000       0.00000       0.00000       0.00000       0.00000       0.00000       0.00000  
       2         2         1      2005    recall           pt00003      49.28237       0.00046       0.11976       0.00000       0.18234       0.22177       0.00000       0.42876       0.02464       0.35976       0.00000       0.00000       0.00000       0.00000       0.00000       0.00000       0.00000       0.00000  
       3         3         1      2005    recall           pt00003      49.28237       0.00046       0.11976       0.00000       0.18234       0.22177       0.00000       0.42876       0.02464       0.35976       0.00000       0.00000       0.00000       0.00000       0.00000       0.00000       0.00000       0.00000  
       4         4         1      2005    recall           pt00003      49.28237       0.00046       0.11976       0.00000       0.18234       0.22177       0.00000       0.42876       0.02464       0.35976       0.00000       0.00000       0.00000       0.00000       0.00000       0.00000       0.00000       0.00000  
       5         5         1      2005    recall           pt00003      49.28237       0.00046       0.11976       0.00000       0.18234       0.22177       0.00000       0.42876       0.02464       0.35976       0.00000       0.00000       0.00000       0.00000       0.00000       0.00000       0.00000       0.00000  
       6         6         1      2005    recall           pt00003      49.28237       0.00046       0.11976       0.00000       0.18234       0.22177       0.00000       0.42876       0.02464       0.35976       0.00000       0.00000       0.00000       0.00000       0.00000       0.00000       0.00000       0.00000  
       7         7         1      2005    recall           pt00003      49.28237       0.00046       0.11976       0.00000       0.18234       0.22177       0.00000       0.42876       0.02464       0.35976       0.00000       0.00000       0.00000       0.00000       0.00000       0.00000       0.00000       0.00000  
       8         8         1      2005    recall           pt00003      49.28237       0.00046       0.11976       0.00000       0.18234       0.22177       0.00000       0.42876       0.02464       0.35976       0.00000       0.00000       0.00000       0.00000       0.00000       0.00000       0.00000       0.00000  
       9         9         1      2005    recall           pt00003      49.28237       0.00046       0.11976       0.00000       0.18234       0.22177       0.00000       0.42876       0.02464       0.35976       0.00000       0.00000       0.00000       0.00000       0.00000       0.00000       0.00000       0.00000  
      10        10         1      2005    recall           pt00003      49.28237       0.00046       0.11976       0.00000       0.18234       0.22177       0.00000       0.42876       0.02464       0.35976       0.00000       0.00000       0.00000       0.00000       0.00000       0.00000       0.00000       0.00000  
      11        11         1      2005    recall           pt00003      49.28237       0.00046       0.11976       0.00000       0.18234       0.22177       0.00000       0.42876       0.02464       0.35976       0.00000       0.00000       0.00000       0.00000       0.00000       0.00000       0.00000       0.00000  
      12        12         1      2005    recall           pt00003      49.28237       0.00046       0.11976       0.00000       0.18234       0.22177       0.00000       0.42876       0.02464       0.35976       0.00000       0.00000       0.00000       0.00000       0.00000       0.00000       0.00000       0.00000  
       1         1         1      2006    recall           pt00003      62.97191       0.00043       0.06423       0.00000       0.08816       0.39043       0.00000       1.18387       0.01259       0.64231       0.00000       0.00000       0.00000       0.00000       0.00000       0.00000       0.00000       0.00000  
       2         2         1      2006    recall           pt00003      62.97191       0.00043       0.06423       0.00000       0.08816       0.39043       0.00000       1.18387       0.01259       0.64231       0.00000       0.00000       0.00000       0.00000       0.00000       0.00000       0.00000       0.00000  
       3         3         1      2006    recall           pt00003      62.97191       0.00043       0.06423       0.00000       0.08816       0.39043       0.00000       1.18387       0.01259       0.64231       0.00000       0.00000       0.00000       0.00000       0.00000       0.00000       0.00000       0.00000  
       4         4         1      2006    recall           pt00003      62.97191       0.00043       0.06423       0.00000       0.08816       0.39043       0.00000       1.18387       0.01259       0.64231       0.00000       0.00000       0.00000       0.00000       0.00000       0.00000       0.00000       0.00000  
       5         5         1      2006    recall           pt00003      62.97191       0.00043       0.06423       0.00000       0.08816       0.39043       0.00000       1.18387       0.01259       0.64231       0.00000       0.00000       0.00000       0.00000       0.00000       0.00000       0.00000       0.00000  
       6         6         1      2006    recall           pt00003      62.97191       0.00043       0.06423       0.00000       0.08816       0.39043       0.00000       1.18387       0.01259       0.64231       0.00000       0.00000       0.00000       0.00000       0.00000       0.00000       0.00000       0.00000  
       7         7         1      2006    recall           pt00003      62.97191       0.00043       0.06423       0.00000       0.08816       0.39043       0.00000       1.18387       0.01259       0.64231       0.00000       0.00000       0.00000       0.00000       0.00000       0.00000       0.00000       0.00000  
       8         8         1      2006    recall           pt00003      62.97191       0.00043       0.06423       0.00000       0.08816       0.39043       0.00000       1.18387       0.01259       0.64231       0.00000       0.00000       0.00000       0.00000       0.00000       0.00000       0.00000       0.00000  
       9         9         1      2006    recall           pt00003      62.97191       0.00043       0.06423       0.00000       0.08816       0.39043       0.00000       1.18387       0.01259       0.64231       0.00000       0.00000       0.00000       0.00000       0.00000       0.00000       0.00000       0.00000  
      10        10         1      2006    recall           pt00003      62.97191       0.00043       0.06423       0.00000       0.08816       0.39043       0.00000       1.18387       0.01259       0.64231       0.00000       0.00000       0.00000       0.00000       0.00000       0.00000       0.00000       0.00000  
      11        11         1      2006    recall           pt00003      62.97191       0.00043       0.06423       0.00000       0.08816       0.39043       0.00000       1.18387       0.01259       0.64231       0.00000       0.00000       0.00000       0.00000       0.00000       0.00000       0.00000       0.00000  
      12        12         1      2006    recall           pt00003      62.97191       0.00043       0.06423       0.00000       0.08816       0.39043       0.00000       1.18387       0.01259       0.64231       0.00000       0.00000       0.00000       0.00000       0.00000       0.00000       0.00000       0.00000  
       1         1         1      2007    recall           pt00003     101.30264       0.00054       0.00000       0.00000       1.17511       0.31404       0.00000       0.45586       0.03039       0.72938       0.00000       0.00000       0.00000       0.00000       0.00000       0.00000       0.00000       0.00000  
       2         2         1      2007    recall           pt00003     101.30264       0.00054       0.00000       0.00000       1.17511       0.31404       0.00000       0.45586       0.03039       0.72938       0.00000       0.00000       0.00000       0.00000       0.00000       0.00000       0.00000       0.00000  
       3         3         1      2007    recall           pt00003     101.30264       0.00054       0.00000       0.00000       1.17511       0.31404       0.00000       0.45586       0.03039       0.72938       0.00000       0.00000       0.00000       0.00000       0.00000       0.00000       0.00000       0.00000  
       4         4         1      2007    recall           pt00003     101.30264       0.00054       0.00000       0.00000       1.17511       0.31404       0.00000       0.45586       0.03039       0.72938       0.00000       0.00000       0.00000       0.00000       0.00000       0.00000       0.00000       0.00000  
       5         5         1      2007    recall           pt00003     101.30264       0.00054       0.00000       0.00000       1.17511       0.31404       0.00000       0.45586       0.03039       0.72938       0.00000       0.00000       0.00000       0.00000       0.00000       0.00000       0.00000       0.00000  
       6         6         1      2007    recall           pt00003     101.30264       0.00054       0.00000       0.00000       1.17511       0.31404       0.00000       0.45586       0.03039       0.72938       0.00000       0.00000       0.00000       0.00000       0.00000       0.00000       0.00000       0.00000  
       7         7         1      2007    recall           pt00003     101.30264       0.00054       0.00000       0.00000       1.17511       0.31404       0.00000       0.45586       0.03039       0.72938       0.00000       0.00000       0.00000       0.00000       0.00000       0.00000       0.00000       0.00000  
       8         8         1      2007    recall           pt00003     101.30264       0.00054       0.00000       0.00000       1.17511       0.31404       0.00000       0.45586       0.03039       0.72938       0.00000       0.00000       0.00000       0.00000       0.00000       0.00000       0.00000       0.00000  
       9         9         1      2007    recall           pt00003     101.30264       0.00054       0.00000       0.00000       1.17511       0.31404       0.00000       0.45586       0.03039       0.72938       0.00000       0.00000       0.00000       0.00000       0.00000       0.00000       0.00000       0.00000  
      10        10         1      2007    recall           pt00003     101.30264       0.00054       0.00000       0.00000       1.17511       0.31404       0.00000       0.45586       0.03039       0.72938       0.00000       0.00000       0.00000       0.00000       0.00000       0.00000       0.00000       0.00000  
      11        11         1      2007    recall           pt00003     101.30264       0.00054       0.00000       0.00000       1.17511       0.31404       0.00000       0.45586       0.03039       0.72938       0.00000       0.00000       0.00000       0.00000       0.00000       0.00000       0.00000       0.00000  
      12        12         1      2007    recall           pt00003     101.30264       0.00054       0.00000       0.00000       1.17511       0.31404       0.00000       0.45586       0.03039       0.72938       0.00000       0.00000       0.00000       0.00000       0.00000       0.00000       0.00000       0.00000  
       1         1         1      2008    recall           pt00003     134.15755       0.00123       0.00000       0.00000       0.89886       0.38906       0.00000       1.26108       0.06708       0.89886       0.00000       0.00000       0.00000       0.00000       0.00000       0.00000       0.00000       0.00000  
       2         2         1      2008    recall           pt00003     134.15755       0.00123       0.00000       0.00000       0.89886       0.38906       0.00000       1.26108       0.06708       0.89886       0.00000       0.00000       0.00000       0.00000       0.00000       0.00000       0.00000       0.00000  
       3         3         1      2008    recall           pt00003     134.15755       0.00123       0.00000       0.00000       0.89886       0.38906       0.00000       1.26108       0.06708       0.89886       0.00000       0.00000       0.00000       0.00000       0.00000       0.00000       0.00000       0.00000  
       4         4         1      2008    recall           pt00003     134.15755       0.00123       0.00000       0.00000       0.89886       0.38906       0.00000       1.26108       0.06708       0.89886       0.00000       0.00000       0.00000       0.00000       0.00000       0.00000       0.00000       0.00000  
       5         5         1      2008    recall           pt00003     134.15755       0.00123       0.00000       0.00000       0.89886       0.38906       0.00000       1.26108       0.06708       0.89886       0.00000       0.00000       0.00000       0.00000       0.00000       0.00000       0.00000       0.00000  
       6         6         1      2008    recall           pt00003     134.15755       0.00123       0.00000       0.00000       0.89886       0.38906       0.00000       1.26108       0.06708       0.89886       0.00000       0.00000       0.00000       0.00000       0.00000       0.00000       0.00000       0.00000  
       7         7         1      2008    recall           pt00003     134.15755       0.00123       0.00000       0.00000       0.89886       0.38906       0.00000       1.26108       0.06708       0.89886       0.00000       0.00000       0.00000       0.00000       0.00000       0.00000       0.00000       0.00000  
       8         8         1      2008    recall           pt00003     134.15755       0.00123       0.00000       0.00000       0.89886       0.38906       0.00000       1.26108       0.06708       0.89886       0.00000       0.00000       0.00000       0.00000       0.00000       0.00000       0.00000       0.00000  
       9         9         1      2008    recall           pt00003     134.15755       0.00123       0.00000       0.00000       0.89886       0.38906       0.00000       1.26108       0.06708       0.89886       0.00000       0.00000       0.00000       0.00000       0.00000       0.00000       0.00000       0.00000  
      10        10         1      2008    recall           pt00003     134.15755       0.00123       0.00000       0.00000       0.89886       0.38906       0.00000       1.26108       0.06708       0.89886       0.00000       0.00000       0.00000       0.00000       0.00000       0.00000       0.00000       0.00000  
      11        11         1      2008    recall           pt00003     134.15755       0.00123       0.00000       0.00000       0.89886       0.38906       0.00000       1.26108       0.06708       0.89886       0.00000       0.00000       0.00000       0.00000       0.00000       0.00000       0.00000       0.00000  
      12        12         1      2008    recall           pt00003     134.15755       0.00123       0.00000       0.00000       0.89886       0.38906       0.00000       1.26108       0.06708       0.89886       0.00000       0.00000       0.00000       0.00000       0.00000       0.00000       0.00000       0.00000  
       1         1         1      2009    recall           pt00003      71.18564       0.00092       0.00000       0.02136       0.59796       0.22068       0.00000       0.71897       0.29898       0.60508       0.00000       0.00000       0.00000       0.00000       0.00000       0.00000       0.00000       0.00000  
       2         2         1      2009    recall           pt00003      71.18564       0.00092       0.00000       0.02136       0.59796       0.22068       0.00000       0.71897       0.29898       0.60508       0.00000       0.00000       0.00000       0.00000       0.00000       0.00000       0.00000       0.00000  
       3         3         1      2009    recall           pt00003      71.18564       0.00092       0.00000       0.02136       0.59796       0.22068       0.00000       0.71897       0.29898       0.60508       0.00000       0.00000       0.00000       0.00000       0.00000       0.00000       0.00000       0.00000  
       4         4         1      2009    recall           pt00003      71.18564       0.00092       0.00000       0.02136       0.59796       0.22068       0.00000       0.71897       0.29898       0.60508       0.00000       0.00000       0.00000       0.00000       0.00000       0.00000       0.00000       0.00000  
       5         5         1      2009    recall           pt00003      71.18564       0.00092       0.00000       0.02136       0.59796       0.22068       0.00000       0.71897       0.29898       0.60508       0.00000       0.00000       0.00000       0.00000       0.00000       0.00000       0.00000       0.00000  
       6         6         1      2009    recall           pt00003      71.18564       0.00092       0.00000       0.02136       0.59796       0.22068       0.00000       0.71897       0.29898       0.60508       0.00000       0.00000       0.00000       0.00000       0.00000       0.00000       0.00000       0.00000  
       7         7         1      2009    recall           pt00003      71.18564       0.00092       0.00000       0.02136       0.59796       0.22068       0.00000       0.71897       0.29898       0.60508       0.00000       0.00000       0.00000       0.00000       0.00000       0.00000       0.00000       0.00000  
       8         8         1      2009    recall           pt00003      71.18564       0.00092       0.00000       0.02136       0.59796       0.22068       0.00000       0.71897       0.29898       0.60508       0.00000       0.00000       0.00000       0.00000       0.00000       0.00000       0.00000       0.00000  
       9         9         1      2009    recall           pt00003      71.18564       0.00092       0.00000       0.02136       0.59796       0.22068       0.00000       0.71897       0.29898       0.60508       0.00000       0.00000       0.00000       0.00000       0.00000       0.00000       0.00000       0.00000  
      10        10         1      2009    recall           pt00003      71.18564       0.00092       0.00000       0.02136       0.59796       0.22068       0.00000       0.71897       0.29898       0.60508       0.00000       0.00000       0.00000       0.00000       0.00000       0.00000       0.00000       0.00000  
      11        11         1      2009    recall           pt00003      71.18564       0.00092       0.00000       0.02136       0.59796       0.22068       0.00000       0.71897       0.29898       0.60508       0.00000       0.00000       0.00000       0.00000       0.00000       0.00000       0.00000       0.00000  
      12        12         1      2009    recall           pt00003      71.18564       0.00092       0.00000       0.02136       0.59796       0.22068       0.00000       0.71897       0.29898       0.60508       0.00000       0.00000       0.00000       0.00000       0.00000       0.00000       0.00000       0.00000  
       1         1         1      2010    recall           pt00003      62.97191       0.00050       0.00000       0.00630       0.39043       0.14484       0.00000       0.55415       0.02519       0.37783       0.00000       0.00000       0.00000       0.00000       0.00000       0.00000       0.00000       0.00000  
       2         2         1      2010    recall           pt00003      62.97191       0.00050       0.00000       0.00630       0.39043       0.14484       0.00000       0.55415       0.02519       0.37783       0.00000       0.00000       0.00000       0.00000       0.00000       0.00000       0.00000       0.00000  
       3         3         1      2010    recall           pt00003      62.97191       0.00050       0.00000       0.00630       0.39043       0.14484       0.00000       0.55415       0.02519       0.37783       0.00000       0.00000       0.00000       0.00000       0.00000       0.00000       0.00000       0.00000  
       4         4         1      2010    recall           pt00003      62.97191       0.00050       0.00000       0.00630       0.39043       0.14484       0.00000       0.55415       0.02519       0.37783       0.00000       0.00000       0.00000       0.00000       0.00000       0.00000       0.00000       0.00000  
       5         5         1      2010    recall           pt00003      62.97191       0.00050       0.00000       0.00630       0.39043       0.14484       0.00000       0.55415       0.02519       0.37783       0.00000       0.00000       0.00000       0.00000       0.00000       0.00000       0.00000       0.00000  
       6         6         1      2010    recall           pt00003      62.97191       0.00050       0.00000       0.00630       0.39043       0.14484       0.00000       0.55415       0.02519       0.37783       0.00000       0.00000       0.00000       0.00000       0.00000       0.00000       0.00000       0.00000  
       7         7         1      2010    recall           pt00003      62.97191       0.00050       0.00000       0.00630       0.39043       0.14484       0.00000       0.55415       0.02519       0.37783       0.00000       0.00000       0.00000       0.00000       0.00000       0.00000       0.00000       0.00000  
       8         8         1      2010    recall           pt00003      62.97191       0.00050       0.00000       0.00630       0.39043       0.14484       0.00000       0.55415       0.02519       0.37783       0.00000       0.00000       0.00000       0.00000       0.00000       0.00000       0.00000       0.00000  
       9         9         1      2010    recall           pt00003      62.97191       0.00050       0.00000       0.00630       0.39043       0.14484       0.00000       0.55415       0.02519       0.37783       0.00000       0.00000       0.00000       0.00000       0.00000       0.00000       0.00000       0.00000  
      10        10         1      2010    recall           pt00003      62.97191       0.00050       0.00000       0.00630       0.39043       0.14484       0.00000       0.55415       0.02519       0.37783       0.00000       0.00000       0.00000       0.00000       0.00000       0.00000       0.00000       0.00000  
      11        11         1      2010    recall           pt00003      62.97191       0.00050       0.00000       0.00630       0.39043       0.14484       0.00000       0.55415       0.02519       0.37783       0.00000       0.00000       0.00000       0.00000       0.00000       0.00000       0.00000       0.00000  
      12        12         1      2010    recall           pt00003      62.97191       0.00050       0.00000       0.00630       0.39043       0.14484       0.00000       0.55415       0.02519       0.37783       0.00000       0.00000       0.00000       0.00000       0.00000       0.00000       0.00000       0.00000  
       1         1         1      2011    recall           pt00003      62.97191       0.00029       0.00000       0.00252       0.50378       0.16373       0.00000       0.57934       0.03778       0.41561       0.00000       0.00000       0.00000       0.00000       0.00000       0.00000       0.00000       0.00000  
       2         2         1      2011    recall           pt00003      62.97191       0.00029       0.00000       0.00252       0.50378       0.16373       0.00000       0.57934       0.03778       0.41561       0.00000       0.00000       0.00000       0.00000       0.00000       0.00000       0.00000       0.00000  
       3         3         1      2011    recall           pt00003      62.97191       0.00029       0.00000       0.00252       0.50378       0.16373       0.00000       0.57934       0.03778       0.41561       0.00000       0.00000       0.00000       0.00000       0.00000       0.00000       0.00000       0.00000  
       4         4         1      2011    recall           pt00003      62.97191       0.00029       0.00000       0.00252       0.50378       0.16373       0.00000       0.57934       0.03778       0.41561       0.00000       0.00000       0.00000       0.00000       0.00000       0.00000       0.00000       0.00000  
       5         5         1      2011    recall           pt00003      62.97191       0.00029       0.00000       0.00252       0.50378       0.16373       0.00000       0.57934       0.03778       0.41561       0.00000       0.00000       0.00000       0.00000       0.00000       0.00000       0.00000       0.00000  
       6         6         1      2011    recall           pt00003      62.97191       0.00029       0.00000       0.00252       0.50378       0.16373       0.00000       0.57934       0.03778       0.41561       0.00000       0.00000       0.00000       0.00000       0.00000       0.00000       0.00000       0.00000  
       7         7         1      2011    recall           pt00003      62.97191       0.00029       0.00000       0.00252       0.50378       0.16373       0.00000       0.57934       0.03778       0.41561       0.00000       0.00000       0.00000       0.00000       0.00000       0.00000       0.00000       0.00000  
       8         8         1      2011    recall           pt00003      62.97191       0.00029       0.00000       0.00252       0.50378       0.16373       0.00000       0.57934       0.03778       0.41561       0.00000       0.00000       0.00000       0.00000       0.00000       0.00000       0.00000       0.00000  
       9         9         1      2011    recall           pt00003      62.97191       0.00029       0.00000       0.00252       0.50378       0.16373       0.00000       0.57934       0.03778       0.41561       0.00000       0.00000       0.00000       0.00000       0.00000       0.00000       0.00000       0.00000  
      10        10         1      2011    recall           pt00003      62.97191       0.00029       0.00000       0.00252       0.50378       0.16373       0.00000       0.57934       0.03778       0.41561       0.00000       0.00000       0.00000       0.00000       0.00000       0.00000       0.00000       0.00000  
      11        11         1      2011    recall           pt00003      62.97191       0.00029       0.00000       0.00252       0.50378       0.16373       0.00000       0.57934       0.03778       0.41561       0.00000       0.00000       0.00000       0.00000       0.00000       0.00000       0.00000       0.00000  
      12        12         1      2011    recall           pt00003      62.97191       0.00029       0.00000       0.00252       0.50378       0.16373       0.00000       0.57934       0.03778       0.41561       0.00000       0.00000       0.00000       0.00000       0.00000       0.00000       0.00000       0.00000  
       1         1         1      2012    recall           pt00003      71.18564       0.00034       0.00000       0.00000       0.37017       0.17796       0.00000       0.64779       0.02136       0.39152       0.00000       0.00000       0.00000       0.00000       0.00000       0.00000       0.00000       0.00000  
       2         2         1      2012    recall           pt00003      71.18564       0.00034       0.00000       0.00000       0.37017       0.17796       0.00000       0.64779       0.02136       0.39152       0.00000       0.00000       0.00000       0.00000       0.00000       0.00000       0.00000       0.00000  
       3         3         1      2012    recall           pt00003      71.18564       0.00034       0.00000       0.00000       0.37017       0.17796       0.00000       0.64779       0.02136       0.39152       0.00000       0.00000       0.00000       0.00000       0.00000       0.00000       0.00000       0.00000  
       4         4         1      2012    recall           pt00003      71.18564       0.00034       0.00000       0.00000       0.37017       0.17796       0.00000       0.64779       0.02136       0.39152       0.00000       0.00000       0.00000       0.00000       0.00000       0.00000       0.00000       0.00000  
       5         5         1      2012    recall           pt00003      71.18564       0.00034       0.00000       0.00000       0.37017       0.17796       0.00000       0.64779       0.02136       0.39152       0.00000       0.00000       0.00000       0.00000       0.00000       0.00000       0.00000       0.00000  
       6         6         1      2012    recall           pt00003      71.18564       0.00034       0.00000       0.00000       0.37017       0.17796       0.00000       0.64779       0.02136       0.39152       0.00000       0.00000       0.00000       0.00000       0.00000       0.00000       0.00000       0.00000  
       7         7         1      2012    recall           pt00003      71.18564       0.00034       0.00000       0.00000       0.37017       0.17796       0.00000       0.64779       0.02136       0.39152       0.00000       0.00000       0.00000       0.00000       0.00000       0.00000       0.00000       0.00000  
       8         8         1      2012    recall           pt00003      71.18564       0.00034       0.00000       0.00000       0.37017       0.17796       0.00000       0.64779       0.02136       0.39152       0.00000       0.00000       0.00000       0.00000       0.00000       0.00000       0.00000       0.00000  
       9         9         1      2012    recall           pt00003      71.18564       0.00034       0.00000       0.00000       0.37017       0.17796       0.00000       0.64779       0.02136       0.39152       0.00000       0.00000       0.00000       0.00000       0.00000       0.00000       0.00000       0.00000  
      10        10         1      2012    recall           pt00003      71.18564       0.00034       0.00000       0.00000       0.37017       0.17796       0.00000       0.64779       0.02136       0.39152       0.00000       0.00000       0.00000       0.00000       0.00000       0.00000       0.00000       0.00000  
      11        11         1      2012    recall           pt00003      71.18564       0.00034       0.00000       0.00000       0.37017       0.17796       0.00000       0.64779       0.02136       0.39152       0.00000       0.00000       0.00000       0.00000       0.00000       0.00000       0.00000       0.00000  
      12        12         1      2012    recall           pt00003      71.18564       0.00034       0.00000       0.00000       0.37017       0.17796       0.00000       0.64779       0.02136       0.39152       0.00000       0.00000       0.00000       0.00000       0.00000       0.00000       0.00000       0.00000  
       1         1         1      2013    recall           pt00003      67.90015       0.00045       0.00000       0.00000       0.27663       0.17043       0.00000       0.90979       0.02363       0.34704       0.00000       0.00000       0.00000       0.00000       0.00000       0.00000       0.00000       0.00000  
       2         2         1      2013    recall           pt00003      67.90015       0.00045       0.00000       0.00000       0.27663       0.17043       0.00000       0.90979       0.02363       0.34704       0.00000       0.00000       0.00000       0.00000       0.00000       0.00000       0.00000       0.00000  
       3         3         1      2013    recall           pt00003      67.90015       0.00045       0.00000       0.00000       0.27663       0.17043       0.00000       0.90979       0.02363       0.34704       0.00000       0.00000       0.00000       0.00000       0.00000       0.00000       0.00000       0.00000  
       4         4         1      2013    recall           pt00003      67.90015       0.00045       0.00000       0.00000       0.27663       0.17043       0.00000       0.90979       0.02363       0.34704       0.00000       0.00000       0.00000       0.00000       0.00000       0.00000       0.00000       0.00000  
       5         5         1      2013    recall           pt00003      67.90015       0.00045       0.00000       0.00000       0.27663       0.17043       0.00000       0.90979       0.02363       0.34704       0.00000       0.00000       0.00000       0.00000       0.00000       0.00000       0.00000       0.00000  
       6         6         1      2013    recall           pt00003      67.90015       0.00045       0.00000       0.00000       0.27663       0.17043       0.00000       0.90979       0.02363       0.34704       0.00000       0.00000       0.00000       0.00000       0.00000       0.00000       0.00000       0.00000  
       7         7         1      2013    recall           pt00003      67.90015       0.00045       0.00000       0.00000       0.27663       0.17043       0.00000       0.90979       0.02363       0.34704       0.00000       0.00000       0.00000       0.00000       0.00000       0.00000       0.00000       0.00000  
       8         8         1      2013    recall           pt00003      67.90015       0.00045       0.00000       0.00000       0.27663       0.17043       0.00000       0.90979       0.02363       0.34704       0.00000       0.00000       0.00000       0.00000       0.00000       0.00000       0.00000       0.00000  
       9         9         1      2013    recall           pt00003      67.90015       0.00045       0.00000       0.00000       0.27663       0.17043       0.00000       0.90979       0.02363       0.34704       0.00000       0.00000       0.00000       0.00000       0.00000       0.00000       0.00000       0.00000  
      10        10         1      2013    recall           pt00003      67.90015       0.00045       0.00000       0.00000       0.27663       0.17043       0.00000       0.90979       0.02363       0.34704       0.00000       0.00000       0.00000       0.00000       0.00000       0.00000       0.00000       0.00000  
      11        11         1      2013    recall           pt00003      67.90015       0.00045       0.00000       0.00000       0.27663       0.17043       0.00000       0.90979       0.02363       0.34704       0.00000       0.00000       0.00000       0.00000       0.00000       0.00000       0.00000       0.00000  
      12        12         1      2013    recall           pt00003      67.90015       0.00045       0.00000       0.00000       0.27663       0.17043       0.00000       0.90979       0.02363       0.34704       0.00000       0.00000       0.00000       0.00000       0.00000       0.00000       0.00000       0.00000  
       1         1         1      2014    recall           pt00003      71.73322       0.00024       0.00000       0.00000       0.19777       0.18687       0.00000       0.97923       0.01377       0.33980       0.00000       0.00000       0.00000       0.00000       0.00000       0.00000       0.00000       0.00000  
       2         2         1      2014    recall           pt00003      71.73322       0.00024       0.00000       0.00000       0.19777       0.18687       0.00000       0.97923       0.01377       0.33980       0.00000       0.00000       0.00000       0.00000       0.00000       0.00000       0.00000       0.00000  
       3         3         1      2014    recall           pt00003      71.73322       0.00024       0.00000       0.00000       0.19777       0.18687       0.00000       0.97923       0.01377       0.33980       0.00000       0.00000       0.00000       0.00000       0.00000       0.00000       0.00000       0.00000  
       4         4         1      2014    recall           pt00003      71.73322       0.00024       0.00000       0.00000       0.19777       0.18687       0.00000       0.97923       0.01377       0.33980       0.00000       0.00000       0.00000       0.00000       0.00000       0.00000       0.00000       0.00000  
       5         5         1      2014    recall           pt00003      71.73322       0.00024       0.00000       0.00000       0.19777       0.18687       0.00000       0.97923       0.01377       0.33980       0.00000       0.00000       0.00000       0.00000       0.00000       0.00000       0.00000       0.00000  
       6         6         1      2014    recall           pt00003      71.73322       0.00024       0.00000       0.00000       0.19777       0.18687       0.00000       0.97923       0.01377       0.33980       0.00000       0.00000       0.00000       0.00000       0.00000       0.00000       0.00000       0.00000  
       7         7         1      2014    recall           pt00003      71.73322       0.00024       0.00000       0.00000       0.19777       0.18687       0.00000       0.97923       0.01377       0.33980       0.00000       0.00000       0.00000       0.00000       0.00000       0.00000       0.00000       0.00000  
       8         8         1      2014    recall           pt00003      71.73322       0.00024       0.00000       0.00000       0.19777       0.18687       0.00000       0.97923       0.01377       0.33980       0.00000       0.00000       0.00000       0.00000       0.00000       0.00000       0.00000       0.00000  
[...]
      11        11         1      2014    recall           pt00003      71.73322       0.00024       0.00000       0.00000       0.19777       0.18687       0.00000       0.97923       0.01377       0.33980       0.00000       0.00000       0.00000       0.00000       0.00000       0.00000       0.00000       0.00000  
      12        12         1      2014    recall           pt00003      71.73322       0.00024       0.00000       0.00000       0.19777       0.18687       0.00000       0.97923       0.01377       0.33980       0.00000       0.00000       0.00000       0.00000       0.00000       0.00000       0.00000       0.00000  
       1         1         1      2015    recall           pt00003      75.29250       0.00090       0.00000       0.00000       0.23213       0.38587       0.00000       1.40752       0.03757       0.63750       0.00000       0.00000       0.00000       0.00000       0.00000       0.00000       0.00000       0.00000  
       2         2         1      2015    recall           pt00003      75.29250       0.00090       0.00000       0.00000       0.23213       0.38587       0.00000       1.40752       0.03757       0.63750       0.00000       0.00000       0.00000       0.00000       0.00000       0.00000       0.00000       0.00000  
       3         3         1      2015    recall           pt00003      75.29250       0.00090       0.00000       0.00000       0.23213       0.38587       0.00000       1.40752       0.03757       0.63750       0.00000       0.00000       0.00000       0.00000       0.00000       0.00000       0.00000       0.00000  
       4         4         1      2015    recall           pt00003      75.29250       0.00090       0.00000       0.00000       0.23213       0.38587       0.00000       1.40752       0.03757       0.63750       0.00000       0.00000       0.00000       0.00000       0.00000       0.00000       0.00000       0.00000  
       5         5         1      2015    recall           pt00003      75.29250       0.00090       0.00000       0.00000       0.23213       0.38587       0.00000       1.40752       0.03757       0.63750       0.00000       0.00000       0.00000       0.00000       0.00000       0.00000       0.00000       0.00000  
       6         6         1      2015    recall           pt00003      75.29250       0.00090       0.00000       0.00000       0.23213       0.38587       0.00000       1.40752       0.03757       0.63750       0.00000       0.00000       0.00000       0.00000       0.00000       0.00000       0.00000       0.00000  
       7         7         1      2015    recall           pt00003      75.29250       0.00090       0.00000       0.00000       0.23213       0.38587       0.00000       1.40752       0.03757       0.63750       0.00000       0.00000       0.00000       0.00000       0.00000       0.00000       0.00000       0.00000  
       8         8         1      2015    recall           pt00003      75.29250       0.00090       0.00000       0.00000       0.23213       0.38587       0.00000       1.40752       0.03757       0.63750       0.00000       0.00000       0.00000       0.00000       0.00000       0.00000       0.00000       0.00000  
       9         9         1      2015    recall           pt00003      75.29250       0.00090       0.00000       0.00000       0.23213       0.38587       0.00000       1.40752       0.03757       0.63750       0.00000       0.00000       0.00000       0.00000       0.00000       0.00000       0.00000       0.00000  
      10        10         1      2015    recall           pt00003      75.29250       0.00090       0.00000       0.00000       0.23213       0.38587       0.00000       1.40752       0.03757       0.63750       0.00000       0.00000       0.00000       0.00000       0.00000       0.00000       0.00000       0.00000  
      11        11         1      2015    recall           pt00003      75.29250       0.00090       0.00000       0.00000       0.23213       0.38587       0.00000       1.40752       0.03757       0.63750       0.00000       0.00000       0.00000       0.00000       0.00000       0.00000       0.00000       0.00000  
      12        12         1      2015    recall           pt00003      75.29250       0.00090       0.00000       0.00000       0.23213       0.38587       0.00000       1.40752       0.03757       0.63750       0.00000       0.00000       0.00000       0.00000       0.00000       0.00000       0.00000       0.00000  
       1         1         1      2016    recall           pt00003      82.95865       0.00064       0.00000       0.00000       0.19553       0.25302       0.00000       2.15137       0.02406       0.49203       0.00000       0.00000       0.00000       0.00000       0.00000       0.00000       0.00000       0.00000  
       2         2         1      2016    recall           pt00003      82.95865       0.00064       0.00000       0.00000       0.19553       0.25302       0.00000       2.15137       0.02406       0.49203       0.00000       0.00000       0.00000       0.00000       0.00000       0.00000       0.00000       0.00000  
       3         3         1      2016    recall           pt00003      82.95865       0.00064       0.00000       0.00000       0.19553       0.25302       0.00000       2.15137       0.02406       0.49203       0.00000       0.00000       0.00000       0.00000       0.00000       0.00000       0.00000       0.00000  
       4         4         1      2016    recall           pt00003      82.95865       0.00064       0.00000       0.00000       0.19553       0.25302       0.00000       2.15137       0.02406       0.49203       0.00000       0.00000       0.00000       0.00000       0.00000       0.00000       0.00000       0.00000  
       5         5         1      2016    recall           pt00003      82.95865       0.00064       0.00000       0.00000       0.19553       0.25302       0.00000       2.15137       0.02406       0.49203       0.00000       0.00000       0.00000       0.00000       0.00000       0.00000       0.00000       0.00000  
       6         6         1      2016    recall           pt00003      82.95865       0.00064       0.00000       0.00000       0.19553       0.25302       0.00000       2.15137       0.02406       0.49203       0.00000       0.00000       0.00000       0.00000       0.00000       0.00000       0.00000       0.00000  
       7         7         1      2016    recall           pt00003      82.95865       0.00064       0.00000       0.00000       0.19553       0.25302       0.00000       2.15137       0.02406       0.49203       0.00000       0.00000       0.00000       0.00000       0.00000       0.00000       0.00000       0.00000  
       8         8         1      2016    recall           pt00003      82.95865       0.00064       0.00000       0.00000       0.19553       0.25302       0.00000       2.15137       0.02406       0.49203       0.00000       0.00000       0.00000       0.00000       0.00000       0.00000       0.00000       0.00000  
       9         9         1      2016    recall           pt00003      82.95865       0.00064       0.00000       0.00000       0.19553       0.25302       0.00000       2.15137       0.02406       0.49203       0.00000       0.00000       0.00000       0.00000       0.00000       0.00000       0.00000       0.00000  
      10        10         1      2016    recall           pt00003      82.95865       0.00064       0.00000       0.00000       0.19553       0.25302       0.00000       2.15137       0.02406       0.49203       0.00000       0.00000       0.00000       0.00000       0.00000       0.00000       0.00000       0.00000  
      11        11         1      2016    recall           pt00003      82.95865       0.00064       0.00000       0.00000       0.19553       0.25302       0.00000       2.15137       0.02406       0.49203       0.00000       0.00000       0.00000       0.00000       0.00000       0.00000       0.00000       0.00000  
      12        12         1      2016    recall           pt00003      82.95865       0.00064       0.00000       0.00000       0.19553       0.25302       0.00000       2.15137       0.02406       0.49203       0.00000       0.00000       0.00000       0.00000       0.00000       0.00000       0.00000       0.00000  
       1         1         1      2017    recall           pt00003      90.62480       0.00095       0.00000       0.00000       0.35416       0.20517       0.00000       1.18392       0.02365       0.58825       0.00000       0.00000       0.00000       0.00000       0.00000       0.00000       0.00000       0.00000  
       2         2         1      2017    recall           pt00003      90.62480       0.00095       0.00000       0.00000       0.35416       0.20517       0.00000       1.18392       0.02365       0.58825       0.00000       0.00000       0.00000       0.00000       0.00000       0.00000       0.00000       0.00000  
       3         3         1      2017    recall           pt00003      90.62480       0.00095       0.00000       0.00000       0.35416       0.20517       0.00000       1.18392       0.02365       0.58825       0.00000       0.00000       0.00000       0.00000       0.00000       0.00000       0.00000       0.00000  
       4         4         1      2017    recall           pt00003      90.62480       0.00095       0.00000       0.00000       0.35416       0.20517       0.00000       1.18392       0.02365       0.58825       0.00000       0.00000       0.00000       0.00000       0.00000       0.00000       0.00000       0.00000  
       5         5         1      2017    recall           pt00003      90.62480       0.00095       0.00000       0.00000       0.35416       0.20517       0.00000       1.18392       0.02365       0.58825       0.00000       0.00000       0.00000       0.00000       0.00000       0.00000       0.00000       0.00000  
       6         6         1      2017    recall           pt00003      90.62480       0.00095       0.00000       0.00000       0.35416       0.20517       0.00000       1.18392       0.02365       0.58825       0.00000       0.00000       0.00000       0.00000       0.00000       0.00000       0.00000       0.00000  
       7         7         1      2017    recall           pt00003      90.62480       0.00095       0.00000       0.00000       0.35416       0.20517       0.00000       1.18392       0.02365       0.58825       0.00000       0.00000       0.00000       0.00000       0.00000       0.00000       0.00000       0.00000  
       8         8         1      2017    recall           pt00003      90.62480       0.00095       0.00000       0.00000       0.35416       0.20517       0.00000       1.18392       0.02365       0.58825       0.00000       0.00000       0.00000       0.00000       0.00000       0.00000       0.00000       0.00000  
       9         9         1      2017    recall           pt00003      90.62480       0.00095       0.00000       0.00000       0.35416       0.20517       0.00000       1.18392       0.02365       0.58825       0.00000       0.00000       0.00000       0.00000       0.00000       0.00000       0.00000       0.00000  
      10        10         1      2017    recall           pt00003      90.62480       0.00095       0.00000       0.00000       0.35416       0.20517       0.00000       1.18392       0.02365       0.58825       0.00000       0.00000       0.00000       0.00000       0.00000       0.00000       0.00000       0.00000  
      11        11         1      2017    recall           pt00003      90.62480       0.00095       0.00000       0.00000       0.35416       0.20517       0.00000       1.18392       0.02365       0.58825       0.00000       0.00000       0.00000       0.00000       0.00000       0.00000       0.00000       0.00000  
      12        12         1      2017    recall           pt00003      90.62480       0.00095       0.00000       0.00000       0.35416       0.20517       0.00000       1.18392       0.02365       0.58825       0.00000       0.00000       0.00000       0.00000       0.00000       0.00000       0.00000       0.00000  
       1         1         1      2018    recall           pt00003      98.83852       0.00113       0.00000       0.00000       0.37292       0.32211       0.00000       1.59772       0.02273       0.74267       0.00000       0.00000       0.00000       0.00000       0.00000       0.00000       0.00000       0.00000  
       2         2         1      2018    recall           pt00003      98.83852       0.00113       0.00000       0.00000       0.37292       0.32211       0.00000       1.59772       0.02273       0.74267       0.00000       0.00000       0.00000       0.00000       0.00000       0.00000       0.00000       0.00000  
       3         3         1      2018    recall           pt00003      98.83852       0.00113       0.00000       0.00000       0.37292       0.32211       0.00000       1.59772       0.02273       0.74267       0.00000       0.00000       0.00000       0.00000       0.00000       0.00000       0.00000       0.00000  
       4         4         1      2018    recall           pt00003      98.83852       0.00113       0.00000       0.00000       0.37292       0.32211       0.00000       1.59772       0.02273       0.74267       0.00000       0.00000       0.00000       0.00000       0.00000       0.00000       0.00000       0.00000  
       5         5         1      2018    recall           pt00003      98.83852       0.00113       0.00000       0.00000       0.37292       0.32211       0.00000       1.59772       0.02273       0.74267       0.00000       0.00000       0.00000       0.00000       0.00000       0.00000       0.00000       0.00000  
       6         6         1      2018    recall           pt00003      98.83852       0.00113       0.00000       0.00000       0.37292       0.32211       0.00000       1.59772       0.02273       0.74267       0.00000       0.00000       0.00000       0.00000       0.00000       0.00000       0.00000       0.00000  
       7         7         1      2018    recall           pt00003      98.83852       0.00113       0.00000       0.00000       0.37292       0.32211       0.00000       1.59772       0.02273       0.74267       0.00000       0.00000       0.00000       0.00000       0.00000       0.00000       0.00000       0.00000  
       8         8         1      2018    recall           pt00003      98.83852       0.00113       0.00000       0.00000       0.37292       0.32211       0.00000       1.59772       0.02273       0.74267       0.00000       0.00000       0.00000       0.00000       0.00000       0.00000       0.00000       0.00000  
       9         9         1      2018    recall           pt00003      98.83852       0.00113       0.00000       0.00000       0.37292       0.32211       0.00000       1.59772       0.02273       0.74267       0.00000       0.00000       0.00000       0.00000       0.00000       0.00000       0.00000       0.00000  
      10        10         1      2018    recall           pt00003      98.83852       0.00113       0.00000       0.00000       0.37292       0.32211       0.00000       1.59772       0.02273       0.74267       0.00000       0.00000       0.00000       0.00000       0.00000       0.00000       0.00000       0.00000  
      11        11         1      2018    recall           pt00003      98.83852       0.00113       0.00000       0.00000       0.37292       0.32211       0.00000       1.59772       0.02273       0.74267       0.00000       0.00000       0.00000       0.00000       0.00000       0.00000       0.00000       0.00000  
      12        12         1      2018    recall           pt00003      98.83852       0.00113       0.00000       0.00000       0.37292       0.32211       0.00000       1.59772       0.02273       0.74267       0.00000       0.00000       0.00000       0.00000       0.00000       0.00000       0.00000       0.00000  
       1         1         1      2019    recall           pt00003      99.91178       0.00210       0.00000       0.00000       0.39395       0.40304       0.00000       2.98127       0.03117       1.25809       0.00000       0.00000       0.00000       0.00000       0.00000       0.00000       0.00000       0.00000  
       2         2         1      2019    recall           pt00003      99.91178       0.00210       0.00000       0.00000       0.39395       0.40304       0.00000       2.98127       0.03117       1.25809       0.00000       0.00000       0.00000       0.00000       0.00000       0.00000       0.00000       0.00000  
       3         3         1      2019    recall           pt00003      99.91178       0.00210       0.00000       0.00000       0.39395       0.40304       0.00000       2.98127       0.03117       1.25809       0.00000       0.00000       0.00000       0.00000       0.00000       0.00000       0.00000       0.00000  
       4         4         1      2019    recall           pt00003      99.91178       0.00210       0.00000       0.00000       0.39395       0.40304       0.00000       2.98127       0.03117       1.25809       0.00000       0.00000       0.00000       0.00000       0.00000       0.00000       0.00000       0.00000  
       5         5         1      2019    recall           pt00003      99.91178       0.00210       0.00000       0.00000       0.39395       0.40304       0.00000       2.98127       0.03117       1.25809       0.00000       0.00000       0.00000       0.00000       0.00000       0.00000       0.00000       0.00000  
       6         6         1      2019    recall           pt00003      99.91178       0.00210       0.00000       0.00000       0.39395       0.40304       0.00000       2.98127       0.03117       1.25809       0.00000       0.00000       0.00000       0.00000       0.00000       0.00000       0.00000       0.00000  
       7         7         1      2019    recall           pt00003      99.91178       0.00210       0.00000       0.00000       0.39395       0.40304       0.00000       2.98127       0.03117       1.25809       0.00000       0.00000       0.00000       0.00000       0.00000       0.00000       0.00000       0.00000  
       8         8         1      2019    recall           pt00003      99.91178       0.00210       0.00000       0.00000       0.39395       0.40304       0.00000       2.98127       0.03117       1.25809       0.00000       0.00000       0.00000       0.00000       0.00000       0.00000       0.00000       0.00000  
       9         9         1      2019    recall           pt00003      99.91178       0.00210       0.00000       0.00000       0.39395       0.40304       0.00000       2.98127       0.03117       1.25809       0.00000       0.00000       0.00000       0.00000       0.00000       0.00000       0.00000       0.00000  
      10        10         1      2019    recall           pt00003      99.91178       0.00210       0.00000       0.00000       0.39395       0.40304       0.00000       2.98127       0.03117       1.25809       0.00000       0.00000       0.00000       0.00000       0.00000       0.00000       0.00000       0.00000  
      11        11         1      2019    recall           pt00003      99.91178       0.00210       0.00000       0.00000       0.39395       0.40304       0.00000       2.98127       0.03117       1.25809       0.00000       0.00000       0.00000       0.00000       0.00000       0.00000       0.00000       0.00000  
      12        12         1      2019    recall           pt00003      99.91178       0.00210       0.00000       0.00000       0.39395       0.40304       0.00000       2.98127       0.03117       1.25809       0.00000       0.00000       0.00000       0.00000       0.00000       0.00000       0.00000       0.00000  
