recall.rec: written by SWAT+ editor v2.0.0 on 2022-02-14 13:07
26
    jday        mo    day_mo       iyr    ob_typ           ob_name           flo           sed         ptl_n         ptl_p         no3_n         sol_p          chla         nh3_n         no2_n       cbn_bod           oxy          sand          silt          clay        sm_agg        lg_agg        gravel           tmp  
       1         1         1      1994    recall           pt00013   25802.62614       0.39395     199.69664      23.86676     190.30845      60.64407       0.00000     232.86320      10.54730     405.72550       0.00000       0.00000       0.00000       0.00000       0.00000       0.00000       0.00000       0.00000  
       2         2         1      1994    recall           pt00013   25802.62614       0.39395     199.69664      23.86676     190.30845      60.64407       0.00000     232.86320      10.54730     405.72550       0.00000       0.00000       0.00000       0.00000       0.00000       0.00000       0.00000       0.00000  
       3         3         1      1994    recall           pt00013   25802.62614       0.39395     199.69664      23.86676     190.30845      60.64407       0.00000     232.86320      10.54730     405.72550       0.00000       0.00000       0.00000       0.00000       0.00000       0.00000       0.00000       0.00000  
       4         4         1      1994    recall           pt00013   25802.62614       0.39395     199.69664      23.86676     190.30845      60.64407       0.00000     232.86320      10.54730     405.72550       0.00000       0.00000       0.00000       0.00000       0.00000       0.00000       0.00000       0.00000  
       5         5         1      1994    recall           pt00013   25802.62614       0.39395     199.69664      23.86676     190.30845      60.64407       0.00000     232.86320      10.54730     405.72550       0.00000       0.00000       0.00000       0.00000       0.00000       0.00000       0.00000       0.00000  
       6         6         1      1994    recall           pt00013   25802.62614       0.39395     199.69664      23.86676     190.30845      60.64407       0.00000     232.86320      10.54730     405.72550       0.00000       0.00000       0.00000       0.00000       0.00000       0.00000       0.00000       0.00000  
       7         7         1      1994    recall           pt00013   25802.62614       0.39395     199.69664      23.86676     190.30845      60.64407       0.00000     232.86320      10.54730     405.72550       0.00000       0.00000       0.00000       0.00000       0.00000       0.00000       0.00000       0.00000  
       8         8         1      1994    recall           pt00013   25802.62614       0.39395     199.69664      23.86676     190.30845      60.64407       0.00000     232.86320      10.54730     405.72550       0.00000       0.00000       0.00000       0.00000       0.00000       0.00000       0.00000       0.00000  
       9         9         1      1994    recall           pt00013   25802.62614       0.39395     199.69664      23.86676     190.30845      60.64407       0.00000     232.86320      10.54730     405.72550       0.00000       0.00000       0.00000       0.00000       0.00000       0.00000       0.00000       0.00000  
      10        10         1      1994    recall           pt00013   25802.62614       0.39395     199.69664      23.86676     190.30845      60.64407       0.00000     232.86320      10.54730     405.72550       0.00000       0.00000       0.00000       0.00000       0.00000       0.00000       0.00000       0.00000  
      11        11         1      1994    recall           pt00013   25802.62614       0.39395     199.69664      23.86676     190.30845      60.64407       0.00000     232.86320      10.54730     405.72550       0.00000       0.00000       0.00000       0.00000       0.00000       0.00000       0.00000       0.00000  
      12        12         1      1994    recall           pt00013   25802.62614       0.39395     199.69664      23.86676     190.30845      60.64407       0.00000     232.86320      10.54730     405.72550       0.00000       0.00000       0.00000       0.00000       0.00000       0.00000       0.00000       0.00000  
       1         1         1      1995    recall           pt00013   25802.62614       0.39395     199.69664      23.86676     190.30845      60.64407       0.00000     232.86320      10.54730     405.72550       0.00000       0.00000       0.00000       0.00000       0.00000       0.00000       0.00000       0.00000  
       2         2         1      1995    recall           pt00013   25802.62614       0.39395     199.69664      23.86676     190.30845      60.64407       0.00000     232.86320      10.54730     405.72550       0.00000       0.00000       0.00000       0.00000       0.00000       0.00000       0.00000       0.00000  
       3         3         1      1995    recall           pt00013   25802.62614       0.39395     199.69664      23.86676     190.30845      60.64407       0.00000     232.86320      10.54730     405.72550       0.00000       0.00000       0.00000       0.00000       0.00000       0.00000       0.00000       0.00000  
       4         4         1      1995    recall           pt00013   25802.62614       0.39395     199.69664      23.86676     190.30845      60.64407       0.00000     232.86320      10.54730     405.72550       0.00000       0.00000       0.00000       0.00000       0.00000       0.00000       0.00000       0.00000  
       5         5         1      1995    recall           pt00013   25802.62614       0.39395     199.69664      23.86676     190.30845      60.64407       0.00000     232.86320      10.54730     405.72550       0.00000       0.00000       0.00000       0.00000       0.00000       0.00000       0.00000       0.00000  
       6         6         1      1995    recall           pt00013   25802.62614       0.39395     199.69664      23.86676     190.30845      60.64407       0.00000     232.86320      10.54730     405.72550       0.00000       0.00000       0.00000       0.00000       0.00000       0.00000       0.00000       0.00000  
       7         7         1      1995    recall           pt00013   25802.62614       0.39395     199.69664      23.86676     190.30845      60.64407       0.00000     232.86320      10.54730     405.72550       0.00000       0.00000       0.00000       0.00000       0.00000       0.00000       0.00000       0.00000  
       8         8         1      1995    recall           pt00013   25802.62614       0.39395     199.69664      23.86676     190.30845      60.64407       0.00000     232.86320      10.54730     405.72550       0.00000       0.00000       0.00000       0.00000       0.00000       0.00000       0.00000       0.00000  
       9         9         1      1995    recall           pt00013   25802.62614       0.39395     199.69664      23.86676     190.30845      60.64407       0.00000     232.86320      10.54730     405.72550       0.00000       0.00000       0.00000       0.00000       0.00000       0.00000       0.00000       0.00000  
      10        10         1      1995    recall           pt00013   25802.62614       0.39395     199.69664      23.86676     190.30845      60.64407       0.00000     232.86320      10.54730     405.72550       0.00000       0.00000       0.00000       0.00000       0.00000       0.00000       0.00000       0.00000  
      11        11         1      1995    recall           pt00013   25802.62614       0.39395     199.69664      23.86676     190.30845      60.64407       0.00000     232.86320      10.54730     405.72550       0.00000       0.00000       0.00000       0.00000       0.00000       0.00000       0.00000       0.00000  
      12        12         1      1995    recall           pt00013   25802.62614       0.39395     199.69664      23.86676     190.30845      60.64407       0.00000     232.86320      10.54730     405.72550       0.00000       0.00000       0.00000       0.00000       0.00000       0.00000       0.00000       0.00000  
       1         1         1      1996    recall           pt00013   25802.62614       0.39395     199.69664      23.86676     190.30845      60.64407       0.00000     232.86320      10.54730     405.72550       0.00000       0.00000       0.00000       0.00000       0.00000       0.00000       0.00000       0.00000  
       2         2         1      1996    recall           pt00013   25802.62614       0.39395     199.69664      23.86676     190.30845      60.64407       0.00000     232.86320      10.54730     405.72550       0.00000       0.00000       0.00000       0.00000       0.00000       0.00000       0.00000       0.00000  
       3         3         1      1996    recall           pt00013   25802.62614       0.39395     199.69664      23.86676     190.30845      60.64407       0.00000     232.86320      10.54730     405.72550       0.00000       0.00000       0.00000       0.00000       0.00000       0.00000       0.00000       0.00000  
       4         4         1      1996    recall           pt00013   25802.62614       0.39395     199.69664      23.86676     190.30845      60.64407       0.00000     232.86320      10.54730     405.72550       0.00000       0.00000       0.00000       0.00000       0.00000       0.00000       0.00000       0.00000  
       5         5         1      1996    recall           pt00013   25802.62614       0.39395     199.69664      23.86676     190.30845      60.64407       0.00000     232.86320      10.54730     405.72550       0.00000       0.00000       0.00000       0.00000       0.00000       0.00000       0.00000       0.00000  
       6         6         1      1996    recall           pt00013   25802.62614       0.39395     199.69664      23.86676     190.30845      60.64407       0.00000     232.86320      10.54730     405.72550       0.00000       0.00000       0.00000       0.00000       0.00000       0.00000       0.00000       0.00000  
       7         7         1      1996    recall           pt00013   25802.62614       0.39395     199.69664      23.86676     190.30845      60.64407       0.00000     232.86320      10.54730     405.72550       0.00000       0.00000       0.00000       0.00000       0.00000       0.00000       0.00000       0.00000  
       8         8         1      1996    recall           pt00013   25802.62614       0.39395     199.69664      23.86676     190.30845      60.64407       0.00000     232.86320      10.54730     405.72550       0.00000       0.00000       0.00000       0.00000       0.00000       0.00000       0.00000       0.00000  
       9         9         1      1996    recall           pt00013   25802.62614       0.39395     199.69664      23.86676     190.30845      60.64407       0.00000     232.86320      10.54730     405.72550       0.00000       0.00000       0.00000       0.00000       0.00000       0.00000       0.00000       0.00000  
      10        10         1      1996    recall           pt00013   25802.62614       0.39395     199.69664      23.86676     190.30845      60.64407       0.00000     232.86320      10.54730     405.72550       0.00000       0.00000       0.00000       0.00000       0.00000       0.00000       0.00000       0.00000  
      11        11         1      1996    recall           pt00013   25802.62614       0.39395     199.69664      23.86676     190.30845      60.64407       0.00000     232.86320      10.54730     405.72550       0.00000       0.00000       0.00000       0.00000       0.00000       0.00000       0.00000       0.00000  
      12        12         1      1996    recall           pt00013   25802.62614       0.39395     199.69664      23.86676     190.30845      60.64407       0.00000     232.86320      10.54730     405.72550       0.00000       0.00000       0.00000       0.00000       0.00000       0.00000       0.00000       0.00000  
       1         1         1      1997    recall           pt00013   29358.79593       0.56971     373.07437      49.98833     346.17369     102.79685       0.00000     208.67196       8.79943     446.08181       0.00000       0.00000       0.00000       0.00000       0.00000       0.00000       0.00000       0.00000  
       2         2         1      1997    recall           pt00013   29358.79593       0.56971     373.07437      49.98833     346.17369     102.79685       0.00000     208.67196       8.79943     446.08181       0.00000       0.00000       0.00000       0.00000       0.00000       0.00000       0.00000       0.00000  
       3         3         1      1997    recall           pt00013   29358.79593       0.56971     373.07437      49.98833     346.17369     102.79685       0.00000     208.67196       8.79943     446.08181       0.00000       0.00000       0.00000       0.00000       0.00000       0.00000       0.00000       0.00000  
       4         4         1      1997    recall           pt00013   29358.79593       0.56971     373.07437      49.98833     346.17369     102.79685       0.00000     208.67196       8.79943     446.08181       0.00000       0.00000       0.00000       0.00000       0.00000       0.00000       0.00000       0.00000  
       5         5         1      1997    recall           pt00013   29358.79593       0.56971     373.07437      49.98833     346.17369     102.79685       0.00000     208.67196       8.79943     446.08181       0.00000       0.00000       0.00000       0.00000       0.00000       0.00000       0.00000       0.00000  
       6         6         1      1997    recall           pt00013   29358.79593       0.56971     373.07437      49.98833     346.17369     102.79685       0.00000     208.67196       8.79943     446.08181       0.00000       0.00000       0.00000       0.00000       0.00000       0.00000       0.00000       0.00000  
       7         7         1      1997    recall           pt00013   29358.79593       0.56971     373.07437      49.98833     346.17369     102.79685       0.00000     208.67196       8.79943     446.08181       0.00000       0.00000       0.00000       0.00000       0.00000       0.00000       0.00000       0.00000  
       8         8         1      1997    recall           pt00013   29358.79593       0.56971     373.07437      49.98833     346.17369     102.79685       0.00000     208.67196       8.79943     446.08181       0.00000       0.00000       0.00000       0.00000       0.00000       0.00000       0.00000       0.00000  
       9         9         1      1997    recall           pt00013   29358.79593       0.56971     373.07437      49.98833     346.17369     102.79685       0.00000     208.67196       8.79943     446.08181       0.00000       0.00000       0.00000       0.00000       0.00000       0.00000       0.00000       0.00000  
      10        10         1      1997    recall           pt00013   29358.79593       0.56971     373.07437      49.98833     346.17369     102.79685       0.00000     208.67196       8.79943     446.08181       0.00000       0.00000       0.00000       0.00000       0.00000       0.00000       0.00000       0.00000  
      11        11         1      1997    recall           pt00013   29358.79593       0.56971     373.07437      49.98833     346.17369     102.79685       0.00000     208.67196       8.79943     446.08181       0.00000       0.00000       0.00000       0.00000       0.00000       0.00000       0.00000       0.00000  
      12        12         1      1997    recall           pt00013   29358.79593       0.56971     373.07437      49.98833     346.17369     102.79685       0.00000     208.67196       8.79943     446.08181       0.00000       0.00000       0.00000       0.00000       0.00000       0.00000       0.00000       0.00000  
       1         1         1      1998    recall           pt00013   31538.12511       0.82280     385.40895      41.13407     412.85221     104.05314       0.00000     160.92252       9.45892     990.07547       0.00000       0.00000       0.00000       0.00000       0.00000       0.00000       0.00000       0.00000  
       2         2         1      1998    recall           pt00013   31538.12511       0.82280     385.40895      41.13407     412.85221     104.05314       0.00000     160.92252       9.45892     990.07547       0.00000       0.00000       0.00000       0.00000       0.00000       0.00000       0.00000       0.00000  
       3         3         1      1998    recall           pt00013   31538.12511       0.82280     385.40895      41.13407     412.85221     104.05314       0.00000     160.92252       9.45892     990.07547       0.00000       0.00000       0.00000       0.00000       0.00000       0.00000       0.00000       0.00000  
       4         4         1      1998    recall           pt00013   31538.12511       0.82280     385.40895      41.13407     412.85221     104.05314       0.00000     160.92252       9.45892     990.07547       0.00000       0.00000       0.00000       0.00000       0.00000       0.00000       0.00000       0.00000  
       5         5         1      1998    recall           pt00013   31538.12511       0.82280     385.40895      41.13407     412.85221     104.05314       0.00000     160.92252       9.45892     990.07547       0.00000       0.00000       0.00000       0.00000       0.00000       0.00000       0.00000       0.00000  
       6         6         1      1998    recall           pt00013   31538.12511       0.82280     385.40895      41.13407     412.85221     104.05314       0.00000     160.92252       9.45892     990.07547       0.00000       0.00000       0.00000       0.00000       0.00000       0.00000       0.00000       0.00000  
       7         7         1      1998    recall           pt00013   31538.12511       0.82280     385.40895      41.13407     412.85221     104.05314       0.00000     160.92252       9.45892     990.07547       0.00000       0.00000       0.00000       0.00000       0.00000       0.00000       0.00000       0.00000  
       8         8         1      1998    recall           pt00013   31538.12511       0.82280     385.40895      41.13407     412.85221     104.05314       0.00000     160.92252       9.45892     990.07547       0.00000       0.00000       0.00000       0.00000       0.00000       0.00000       0.00000       0.00000  
       9         9         1      1998    recall           pt00013   31538.12511       0.82280     385.40895      41.13407     412.85221     104.05314       0.00000     160.92252       9.45892     990.07547       0.00000       0.00000       0.00000       0.00000       0.00000       0.00000       0.00000       0.00000  
      10        10         1      1998    recall           pt00013   31538.12511       0.82280     385.40895      41.13407     412.85221     104.05314       0.00000     160.92252       9.45892     990.07547       0.00000       0.00000       0.00000       0.00000       0.00000       0.00000       0.00000       0.00000  
      11        11         1      1998    recall           pt00013   31538.12511       0.82280     385.40895      41.13407     412.85221     104.05314       0.00000     160.92252       9.45892     990.07547       0.00000       0.00000       0.00000       0.00000       0.00000       0.00000       0.00000       0.00000  
      12        12         1      1998    recall           pt00013   31538.12511       0.82280     385.40895      41.13407     412.85221     104.05314       0.00000     160.92252       9.45892     990.07547       0.00000       0.00000       0.00000       0.00000       0.00000       0.00000       0.00000       0.00000  
       1         1         1      1999    recall           pt00013   31015.46935       0.43101     350.75710      49.64383     433.97221     151.94787       0.00000     120.98593      15.50075     923.92354       0.00000       0.00000       0.00000       0.00000       0.00000       0.00000       0.00000       0.00000  
       2         2         1      1999    recall           pt00013   31015.46935       0.43101     350.75710      49.64383     433.97221     151.94787       0.00000     120.98593      15.50075     923.92354       0.00000       0.00000       0.00000       0.00000       0.00000       0.00000       0.00000       0.00000  
       3         3         1      1999    recall           pt00013   31015.46935       0.43101     350.75710      49.64383     433.97221     151.94787       0.00000     120.98593      15.50075     923.92354       0.00000       0.00000       0.00000       0.00000       0.00000       0.00000       0.00000       0.00000  
       4         4         1      1999    recall           pt00013   31015.46935       0.43101     350.75710      49.64383     433.97221     151.94787       0.00000     120.98593      15.50075     923.92354       0.00000       0.00000       0.00000       0.00000       0.00000       0.00000       0.00000       0.00000  
       5         5         1      1999    recall           pt00013   31015.46935       0.43101     350.75710      49.64383     433.97221     151.94787       0.00000     120.98593      15.50075     923.92354       0.00000       0.00000       0.00000       0.00000       0.00000       0.00000       0.00000       0.00000  
       6         6         1      1999    recall           pt00013   31015.46935       0.43101     350.75710      49.64383     433.97221     151.94787       0.00000     120.98593      15.50075     923.92354       0.00000       0.00000       0.00000       0.00000       0.00000       0.00000       0.00000       0.00000  
       7         7         1      1999    recall           pt00013   31015.46935       0.43101     350.75710      49.64383     433.97221     151.94787       0.00000     120.98593      15.50075     923.92354       0.00000       0.00000       0.00000       0.00000       0.00000       0.00000       0.00000       0.00000  
       8         8         1      1999    recall           pt00013   31015.46935       0.43101     350.75710      49.64383     433.97221     151.94787       0.00000     120.98593      15.50075     923.92354       0.00000       0.00000       0.00000       0.00000       0.00000       0.00000       0.00000       0.00000  
       9         9         1      1999    recall           pt00013   31015.46935       0.43101     350.75710      49.64383     433.97221     151.94787       0.00000     120.98593      15.50075     923.92354       0.00000       0.00000       0.00000       0.00000       0.00000       0.00000       0.00000       0.00000  
      10        10         1      1999    recall           pt00013   31015.46935       0.43101     350.75710      49.64383     433.97221     151.94787       0.00000     120.98593      15.50075     923.92354       0.00000       0.00000       0.00000       0.00000       0.00000       0.00000       0.00000       0.00000  
      11        11         1      1999    recall           pt00013   31015.46935       0.43101     350.75710      49.64383     433.97221     151.94787       0.00000     120.98593      15.50075     923.92354       0.00000       0.00000       0.00000       0.00000       0.00000       0.00000       0.00000       0.00000  
      12        12         1      1999    recall           pt00013   31015.46935       0.43101     350.75710      49.64383     433.97221     151.94787       0.00000     120.98593      15.50075     923.92354       0.00000       0.00000       0.00000       0.00000       0.00000       0.00000       0.00000       0.00000  
       1         1         1      2000    recall           pt00013   27937.85127       0.46913     313.12005      64.24888     463.46837     150.82576       0.00000      72.69977      13.96211     647.95136       0.00000       0.00000       0.00000       0.00000       0.00000       0.00000       0.00000       0.00000  
       2         2         1      2000    recall           pt00013   27937.85127       0.46913     313.12005      64.24888     463.46837     150.82576       0.00000      72.69977      13.96211     647.95136       0.00000       0.00000       0.00000       0.00000       0.00000       0.00000       0.00000       0.00000  
       3         3         1      2000    recall           pt00013   27937.85127       0.46913     313.12005      64.24888     463.46837     150.82576       0.00000      72.69977      13.96211     647.95136       0.00000       0.00000       0.00000       0.00000       0.00000       0.00000       0.00000       0.00000  
       4         4         1      2000    recall           pt00013   27937.85127       0.46913     313.12005      64.24888     463.46837     150.82576       0.00000      72.69977      13.96211     647.95136       0.00000       0.00000       0.00000       0.00000       0.00000       0.00000       0.00000       0.00000  
       5         5         1      2000    recall           pt00013   27937.85127       0.46913     313.12005      64.24888     463.46837     150.82576       0.00000      72.69977      13.96211     647.95136       0.00000       0.00000       0.00000       0.00000       0.00000       0.00000       0.00000       0.00000  
       6         6         1      2000    recall           pt00013   27937.85127       0.46913     313.12005      64.24888     463.46837     150.82576       0.00000      72.69977      13.96211     647.95136       0.00000       0.00000       0.00000       0.00000       0.00000       0.00000       0.00000       0.00000  
       7         7         1      2000    recall           pt00013   27937.85127       0.46913     313.12005      64.24888     463.46837     150.82576       0.00000      72.69977      13.96211     647.95136       0.00000       0.00000       0.00000       0.00000       0.00000       0.00000       0.00000       0.00000  
       8         8         1      2000    recall           pt00013   27937.85127       0.46913     313.12005      64.24888     463.46837     150.82576       0.00000      72.69977      13.96211     647.95136       0.00000       0.00000       0.00000       0.00000       0.00000       0.00000       0.00000       0.00000  
       9         9         1      2000    recall           pt00013   27937.85127       0.46913     313.12005      64.24888     463.46837     150.82576       0.00000      72.69977      13.96211     647.95136       0.00000       0.00000       0.00000       0.00000       0.00000       0.00000       0.00000       0.00000  
      10        10         1      2000    recall           pt00013   27937.85127       0.46913     313.12005      64.24888     463.46837     150.82576       0.00000      72.69977      13.96211     647.95136       0.00000       0.00000       0.00000       0.00000       0.00000       0.00000       0.00000       0.00000  
      11        11         1      2000    recall           pt00013   27937.85127       0.46913     313.12005      64.24888     463.46837     150.82576       0.00000      72.69977      13.96211     647.95136       0.00000       0.00000       0.00000       0.00000       0.00000       0.00000       0.00000       0.00000  
      12        12         1      2000    recall           pt00013   27937.85127       0.46913     313.12005      64.24888     463.46837     150.82576       0.00000      72.69977      13.96211     647.95136       0.00000       0.00000       0.00000       0.00000       0.00000       0.00000       0.00000       0.00000  
       1         1         1      2001    recall           pt00013   28332.64919       0.52120     357.37628      34.05399     362.51335     144.47091       0.00000      48.16550      16.99357     764.88515       0.00000       0.00000       0.00000       0.00000       0.00000       0.00000       0.00000       0.00000  
       2         2         1      2001    recall           pt00013   28332.64919       0.52120     357.37628      34.05399     362.51335     144.47091       0.00000      48.16550      16.99357     764.88515       0.00000       0.00000       0.00000       0.00000       0.00000       0.00000       0.00000       0.00000  
       3         3         1      2001    recall           pt00013   28332.64919       0.52120     357.37628      34.05399     362.51335     144.47091       0.00000      48.16550      16.99357     764.88515       0.00000       0.00000       0.00000       0.00000       0.00000       0.00000       0.00000       0.00000  
       4         4         1      2001    recall           pt00013   28332.64919       0.52120     357.37628      34.05399     362.51335     144.47091       0.00000      48.16550      16.99357     764.88515       0.00000       0.00000       0.00000       0.00000       0.00000       0.00000       0.00000       0.00000  
       5         5         1      2001    recall           pt00013   28332.64919       0.52120     357.37628      34.05399     362.51335     144.47091       0.00000      48.16550      16.99357     764.88515       0.00000       0.00000       0.00000       0.00000       0.00000       0.00000       0.00000       0.00000  
       6         6         1      2001    recall           pt00013   28332.64919       0.52120     357.37628      34.05399     362.51335     144.47091       0.00000      48.16550      16.99357     764.88515       0.00000       0.00000       0.00000       0.00000       0.00000       0.00000       0.00000       0.00000  
       7         7         1      2001    recall           pt00013   28332.64919       0.52120     357.37628      34.05399     362.51335     144.47091       0.00000      48.16550      16.99357     764.88515       0.00000       0.00000       0.00000       0.00000       0.00000       0.00000       0.00000       0.00000  
       8         8         1      2001    recall           pt00013   28332.64919       0.52120     357.37628      34.05399     362.51335     144.47091       0.00000      48.16550      16.99357     764.88515       0.00000       0.00000       0.00000       0.00000       0.00000       0.00000       0.00000       0.00000  
       9         9         1      2001    recall           pt00013   28332.64919       0.52120     357.37628      34.05399     362.51335     144.47091       0.00000      48.16550      16.99357     764.88515       0.00000       0.00000       0.00000       0.00000       0.00000       0.00000       0.00000       0.00000  
      10        10         1      2001    recall           pt00013   28332.64919       0.52120     357.37628      34.05399     362.51335     144.47091       0.00000      48.16550      16.99357     764.88515       0.00000       0.00000       0.00000       0.00000       0.00000       0.00000       0.00000       0.00000  
      11        11         1      2001    recall           pt00013   28332.64919       0.52120     357.37628      34.05399     362.51335     144.47091       0.00000      48.16550      16.99357     764.88515       0.00000       0.00000       0.00000       0.00000       0.00000       0.00000       0.00000       0.00000  
      12        12         1      2001    recall           pt00013   28332.64919       0.52120     357.37628      34.05399     362.51335     144.47091       0.00000      48.16550      16.99357     764.88515       0.00000       0.00000       0.00000       0.00000       0.00000       0.00000       0.00000       0.00000  
       1         1         1      2002    recall           pt00013   25209.85655       0.40583     423.88902      20.25723     196.53291     113.39874       0.00000      78.12104      20.15849     705.78744       0.00000       0.00000       0.00000       0.00000       0.00000       0.00000       0.00000       0.00000  
       2         2         1      2002    recall           pt00013   25209.85655       0.40583     423.88902      20.25723     196.53291     113.39874       0.00000      78.12104      20.15849     705.78744       0.00000       0.00000       0.00000       0.00000       0.00000       0.00000       0.00000       0.00000  
       3         3         1      2002    recall           pt00013   25209.85655       0.40583     423.88902      20.25723     196.53291     113.39874       0.00000      78.12104      20.15849     705.78744       0.00000       0.00000       0.00000       0.00000       0.00000       0.00000       0.00000       0.00000  
       4         4         1      2002    recall           pt00013   25209.85655       0.40583     423.88902      20.25723     196.53291     113.39874       0.00000      78.12104      20.15849     705.78744       0.00000       0.00000       0.00000       0.00000       0.00000       0.00000       0.00000       0.00000  
       5         5         1      2002    recall           pt00013   25209.85655       0.40583     423.88902      20.25723     196.53291     113.39874       0.00000      78.12104      20.15849     705.78744       0.00000       0.00000       0.00000       0.00000       0.00000       0.00000       0.00000       0.00000  
       6         6         1      2002    recall           pt00013   25209.85655       0.40583     423.88902      20.25723     196.53291     113.39874       0.00000      78.12104      20.15849     705.78744       0.00000       0.00000       0.00000       0.00000       0.00000       0.00000       0.00000       0.00000  
       7         7         1      2002    recall           pt00013   25209.85655       0.40583     423.88902      20.25723     196.53291     113.39874       0.00000      78.12104      20.15849     705.78744       0.00000       0.00000       0.00000       0.00000       0.00000       0.00000       0.00000       0.00000  
       8         8         1      2002    recall           pt00013   25209.85655       0.40583     423.88902      20.25723     196.53291     113.39874       0.00000      78.12104      20.15849     705.78744       0.00000       0.00000       0.00000       0.00000       0.00000       0.00000       0.00000       0.00000  
       9         9         1      2002    recall           pt00013   25209.85655       0.40583     423.88902      20.25723     196.53291     113.39874       0.00000      78.12104      20.15849     705.78744       0.00000       0.00000       0.00000       0.00000       0.00000       0.00000       0.00000       0.00000  
      10        10         1      2002    recall           pt00013   25209.85655       0.40583     423.88902      20.25723     196.53291     113.39874       0.00000      78.12104      20.15849     705.78744       0.00000       0.00000       0.00000       0.00000       0.00000       0.00000       0.00000       0.00000  
      11        11         1      2002    recall           pt00013   25209.85655       0.40583     423.88902      20.25723     196.53291     113.39874       0.00000      78.12104      20.15849     705.78744       0.00000       0.00000       0.00000       0.00000       0.00000       0.00000       0.00000       0.00000  
      12        12         1      2002    recall           pt00013   25209.85655       0.40583     423.88902      20.25723     196.53291     113.39874       0.00000      78.12104      20.15849     705.78744       0.00000       0.00000       0.00000       0.00000       0.00000       0.00000       0.00000       0.00000  
       1         1         1      2003    recall           pt00013   22951.95096       0.45213      36.79258      18.35995      27.55729      57.39828       0.00000     871.90505       6.88501     275.42226       0.00000       0.00000       0.00000       0.00000       0.00000       0.00000       0.00000       0.00000  
       2         2         1      2003    recall           pt00013   22951.95096       0.45213      36.79258      18.35995      27.55729      57.39828       0.00000     871.90505       6.88501     275.42226       0.00000       0.00000       0.00000       0.00000       0.00000       0.00000       0.00000       0.00000  
       3         3         1      2003    recall           pt00013   22951.95096       0.45213      36.79258      18.35995      27.55729      57.39828       0.00000     871.90505       6.88501     275.42226       0.00000       0.00000       0.00000       0.00000       0.00000       0.00000       0.00000       0.00000  
       4         4         1      2003    recall           pt00013   22951.95096       0.45213      36.79258      18.35995      27.55729      57.39828       0.00000     871.90505       6.88501     275.42226       0.00000       0.00000       0.00000       0.00000       0.00000       0.00000       0.00000       0.00000  
       5         5         1      2003    recall           pt00013   22951.95096       0.45213      36.79258      18.35995      27.55729      57.39828       0.00000     871.90505       6.88501     275.42226       0.00000       0.00000       0.00000       0.00000       0.00000       0.00000       0.00000       0.00000  
       6         6         1      2003    recall           pt00013   22951.95096       0.45213      36.79258      18.35995      27.55729      57.39828       0.00000     871.90505       6.88501     275.42226       0.00000       0.00000       0.00000       0.00000       0.00000       0.00000       0.00000       0.00000  
       7         7         1      2003    recall           pt00013   22951.95096       0.45213      36.79258      18.35995      27.55729      57.39828       0.00000     871.90505       6.88501     275.42226       0.00000       0.00000       0.00000       0.00000       0.00000       0.00000       0.00000       0.00000  
       8         8         1      2003    recall           pt00013   22951.95096       0.45213      36.79258      18.35995      27.55729      57.39828       0.00000     871.90505       6.88501     275.42226       0.00000       0.00000       0.00000       0.00000       0.00000       0.00000       0.00000       0.00000  
       9         9         1      2003    recall           pt00013   22951.95096       0.45213      36.79258      18.35995      27.55729      57.39828       0.00000     871.90505       6.88501     275.42226       0.00000       0.00000       0.00000       0.00000       0.00000       0.00000       0.00000       0.00000  
      10        10         1      2003    recall           pt00013   22951.95096       0.45213      36.79258      18.35995      27.55729      57.39828       0.00000     871.90505       6.88501     275.42226       0.00000       0.00000       0.00000       0.00000       0.00000       0.00000       0.00000       0.00000  
      11        11         1      2003    recall           pt00013   22951.95096       0.45213      36.79258      18.35995      27.55729      57.39828       0.00000     871.90505       6.88501     275.42226       0.00000       0.00000       0.00000       0.00000       0.00000       0.00000       0.00000       0.00000  
      12        12         1      2003    recall           pt00013   22951.95096       0.45213      36.79258      18.35995      27.55729      57.39828       0.00000     871.90505       6.88501     275.42226       0.00000       0.00000       0.00000       0.00000       0.00000       0.00000       0.00000       0.00000  
       1         1         1      2004    recall           pt00013   26117.72785       0.46224     195.89158      20.88975      31.35606      39.20000       0.00000     838.09939      20.88630     274.22505       0.00000       0.00000       0.00000       0.00000       0.00000       0.00000       0.00000       0.00000  
       2         2         1      2004    recall           pt00013   26117.72785       0.46224     195.89158      20.88975      31.35606      39.20000       0.00000     838.09939      20.88630     274.22505       0.00000       0.00000       0.00000       0.00000       0.00000       0.00000       0.00000       0.00000  
       3         3         1      2004    recall           pt00013   26117.72785       0.46224     195.89158      20.88975      31.35606      39.20000       0.00000     838.09939      20.88630     274.22505       0.00000       0.00000       0.00000       0.00000       0.00000       0.00000       0.00000       0.00000  
       4         4         1      2004    recall           pt00013   26117.72785       0.46224     195.89158      20.88975      31.35606      39.20000       0.00000     838.09939      20.88630     274.22505       0.00000       0.00000       0.00000       0.00000       0.00000       0.00000       0.00000       0.00000  
       5         5         1      2004    recall           pt00013   26117.72785       0.46224     195.89158      20.88975      31.35606      39.20000       0.00000     838.09939      20.88630     274.22505       0.00000       0.00000       0.00000       0.00000       0.00000       0.00000       0.00000       0.00000  
       6         6         1      2004    recall           pt00013   26117.72785       0.46224     195.89158      20.88975      31.35606      39.20000       0.00000     838.09939      20.88630     274.22505       0.00000       0.00000       0.00000       0.00000       0.00000       0.00000       0.00000       0.00000  
       7         7         1      2004    recall           pt00013   26117.72785       0.46224     195.89158      20.88975      31.35606      39.20000       0.00000     838.09939      20.88630     274.22505       0.00000       0.00000       0.00000       0.00000       0.00000       0.00000       0.00000       0.00000  
       8         8         1      2004    recall           pt00013   26117.72785       0.46224     195.89158      20.88975      31.35606      39.20000       0.00000     838.09939      20.88630     274.22505       0.00000       0.00000       0.00000       0.00000       0.00000       0.00000       0.00000       0.00000  
       9         9         1      2004    recall           pt00013   26117.72785       0.46224     195.89158      20.88975      31.35606      39.20000       0.00000     838.09939      20.88630     274.22505       0.00000       0.00000       0.00000       0.00000       0.00000       0.00000       0.00000       0.00000  
      10        10         1      2004    recall           pt00013   26117.72785       0.46224     195.89158      20.88975      31.35606      39.20000       0.00000     838.09939      20.88630     274.22505       0.00000       0.00000       0.00000       0.00000       0.00000       0.00000       0.00000       0.00000  
      11        11         1      2004    recall           pt00013   26117.72785       0.46224     195.89158      20.88975      31.35606      39.20000       0.00000     838.09939      20.88630     274.22505       0.00000       0.00000       0.00000       0.00000       0.00000       0.00000       0.00000       0.00000  
      12        12         1      2004    recall           pt00013   26117.72785       0.46224     195.89158      20.88975      31.35606      39.20000       0.00000     838.09939      20.88630     274.22505       0.00000       0.00000       0.00000       0.00000       0.00000       0.00000       0.00000       0.00000  
       1         1         1      2005    recall           pt00013   25136.20837       0.43480     203.53648      25.12252      57.79274      35.21533       0.00000     540.27926      22.61711     289.00753       0.00000       0.00000       0.00000       0.00000       0.00000       0.00000       0.00000       0.00000  
       2         2         1      2005    recall           pt00013   25136.20837       0.43480     203.53648      25.12252      57.79274      35.21533       0.00000     540.27926      22.61711     289.00753       0.00000       0.00000       0.00000       0.00000       0.00000       0.00000       0.00000       0.00000  
       3         3         1      2005    recall           pt00013   25136.20837       0.43480     203.53648      25.12252      57.79274      35.21533       0.00000     540.27926      22.61711     289.00753       0.00000       0.00000       0.00000       0.00000       0.00000       0.00000       0.00000       0.00000  
       4         4         1      2005    recall           pt00013   25136.20837       0.43480     203.53648      25.12252      57.79274      35.21533       0.00000     540.27926      22.61711     289.00753       0.00000       0.00000       0.00000       0.00000       0.00000       0.00000       0.00000       0.00000  
       5         5         1      2005    recall           pt00013   25136.20837       0.43480     203.53648      25.12252      57.79274      35.21533       0.00000     540.27926      22.61711     289.00753       0.00000       0.00000       0.00000       0.00000       0.00000       0.00000       0.00000       0.00000  
       6         6         1      2005    recall           pt00013   25136.20837       0.43480     203.53648      25.12252      57.79274      35.21533       0.00000     540.27926      22.61711     289.00753       0.00000       0.00000       0.00000       0.00000       0.00000       0.00000       0.00000       0.00000  
       7         7         1      2005    recall           pt00013   25136.20837       0.43480     203.53648      25.12252      57.79274      35.21533       0.00000     540.27926      22.61711     289.00753       0.00000       0.00000       0.00000       0.00000       0.00000       0.00000       0.00000       0.00000  
       8         8         1      2005    recall           pt00013   25136.20837       0.43480     203.53648      25.12252      57.79274      35.21533       0.00000     540.27926      22.61711     289.00753       0.00000       0.00000       0.00000       0.00000       0.00000       0.00000       0.00000       0.00000  
       9         9         1      2005    recall           pt00013   25136.20837       0.43480     203.53648      25.12252      57.79274      35.21533       0.00000     540.27926      22.61711     289.00753       0.00000       0.00000       0.00000       0.00000       0.00000       0.00000       0.00000       0.00000  
      10        10         1      2005    recall           pt00013   25136.20837       0.43480     203.53648      25.12252      57.79274      35.21533       0.00000     540.27926      22.61711     289.00753       0.00000       0.00000       0.00000       0.00000       0.00000       0.00000       0.00000       0.00000  
      11        11         1      2005    recall           pt00013   25136.20837       0.43480     203.53648      25.12252      57.79274      35.21533       0.00000     540.27926      22.61711     289.00753       0.00000       0.00000       0.00000       0.00000       0.00000       0.00000       0.00000       0.00000  
      12        12         1      2005    recall           pt00013   25136.20837       0.43480     203.53648      25.12252      57.79274      35.21533       0.00000     540.27926      22.61711     289.00753       0.00000       0.00000       0.00000       0.00000       0.00000       0.00000       0.00000       0.00000  
       1         1         1      2006    recall           pt00013   21174.53828       0.48263      84.64339      19.04476     103.79631      36.01314       0.00000     258.24860      14.81807     325.96468       0.00000       0.00000       0.00000       0.00000       0.00000       0.00000       0.00000       0.00000  
       2         2         1      2006    recall           pt00013   21174.53828       0.48263      84.64339      19.04476     103.79631      36.01314       0.00000     258.24860      14.81807     325.96468       0.00000       0.00000       0.00000       0.00000       0.00000       0.00000       0.00000       0.00000  
       3         3         1      2006    recall           pt00013   21174.53828       0.48263      84.64339      19.04476     103.79631      36.01314       0.00000     258.24860      14.81807     325.96468       0.00000       0.00000       0.00000       0.00000       0.00000       0.00000       0.00000       0.00000  
       4         4         1      2006    recall           pt00013   21174.53828       0.48263      84.64339      19.04476     103.79631      36.01314       0.00000     258.24860      14.81807     325.96468       0.00000       0.00000       0.00000       0.00000       0.00000       0.00000       0.00000       0.00000  
       5         5         1      2006    recall           pt00013   21174.53828       0.48263      84.64339      19.04476     103.79631      36.01314       0.00000     258.24860      14.81807     325.96468       0.00000       0.00000       0.00000       0.00000       0.00000       0.00000       0.00000       0.00000  
       6         6         1      2006    recall           pt00013   21174.53828       0.48263      84.64339      19.04476     103.79631      36.01314       0.00000     258.24860      14.81807     325.96468       0.00000       0.00000       0.00000       0.00000       0.00000       0.00000       0.00000       0.00000  
       7         7         1      2006    recall           pt00013   21174.53828       0.48263      84.64339      19.04476     103.79631      36.01314       0.00000     258.24860      14.81807     325.96468       0.00000       0.00000       0.00000       0.00000       0.00000       0.00000       0.00000       0.00000  
       8         8         1      2006    recall           pt00013   21174.53828       0.48263      84.64339      19.04476     103.79631      36.01314       0.00000     258.24860      14.81807     325.96468       0.00000       0.00000       0.00000       0.00000       0.00000       0.00000       0.00000       0.00000  
       9         9         1      2006    recall           pt00013   21234.70747       0.46703     251.49028       3.22559     152.26285      12.32667       0.00000       0.61677       1.78804     188.95467       0.00000       0.00000       0.00000       0.00000       0.00000       0.00000       0.00000       0.00000  
      10        10         1      2006    recall           pt00013   20431.19908       0.24517     200.41827       4.59394     296.16204      11.98394       0.00000      28.67076       5.80405     122.59267       0.00000       0.00000       0.00000       0.00000       0.00000       0.00000       0.00000       0.00000  
      11        11         1      2006    recall           pt00013   24390.86517       0.39020     547.69125      92.63327     630.01437      92.67297       0.00000     393.77763       3.48217     926.42029       0.00000       0.00000       0.00000       0.00000       0.00000       0.00000       0.00000       0.00000  
      12        12         1      2006    recall           pt00013   23215.87477       1.46190     314.21279      53.36503     362.99032      53.40473       0.00000     226.88760       3.31459     533.73787       0.00000       0.00000       0.00000       0.00000       0.00000       0.00000       0.00000       0.00000  
       1         1         1      2007    recall           pt00013   30803.00871       1.19063     262.73059      36.60388     276.87432      39.12574       0.00000     643.99496       5.31612     540.11358       0.00000       0.00000       0.00000       0.00000       0.00000       0.00000       0.00000       0.00000  
       2         2         1      2007    recall           pt00013   24485.07697       0.34278      84.49497       1.50021      55.14139       5.56431       0.00000     788.09914       4.96933     293.82092       0.00000       0.00000       0.00000       0.00000       0.00000       0.00000       0.00000       0.00000  
       3         3         1      2007    recall           pt00013   32158.82656       0.33847     143.87754      16.17661     139.61445      18.84800       0.00000     585.61657       5.56323     345.99670       0.00000       0.00000       0.00000       0.00000       0.00000       0.00000       0.00000       0.00000  
       4         4         1      2007    recall           pt00013   25248.33829       0.17682     139.18197      24.02932     163.09660      23.98223       0.00000     102.00536       3.60063     239.89344       0.00000       0.00000       0.00000       0.00000       0.00000       0.00000       0.00000       0.00000  
       5         5         1      2007    recall           pt00013   26871.98646       0.13458     164.34616      13.95221     102.01847      14.14636       0.00000     369.39804      17.46715     224.49340       0.00000       0.00000       0.00000       0.00000       0.00000       0.00000       0.00000       0.00000  
       6         6         1      2007    recall           pt00013   25569.25585       0.07685     171.87550       2.17751      28.70300       2.59042       0.00000     600.67628      29.64610     184.16435       0.00000       0.00000       0.00000       0.00000       0.00000       0.00000       0.00000       0.00000  
       7         7         1      2007    recall           pt00013   37715.02149       0.18869     526.11338       0.88583     161.06546       5.09899       0.00000     116.99460      33.14111     829.59358       0.00000       0.00000       0.00000       0.00000       0.00000       0.00000       0.00000       0.00000  
       8         8         1      2007    recall           pt00013   26060.51924       0.31274      21.08375       0.23873      93.84936       0.42606       0.00000     346.54330       7.71150     164.25930       0.00000       0.00000       0.00000       0.00000       0.00000       0.00000       0.00000       0.00000  
       9         9         1      2007    recall           pt00013   26563.57844       0.21258     130.97995       2.63174      34.33012       8.42562       0.00000       1.55416       1.27604      90.43390       0.00000       0.00000       0.00000       0.00000       0.00000       0.00000       0.00000       0.00000  
      10        10         1      2007    recall           pt00013   27908.52826       0.19545     101.50426       4.32404      67.16246       4.83581       0.00000      43.26656       4.58978      88.03423       0.00000       0.00000       0.00000       0.00000       0.00000       0.00000       0.00000       0.00000  
      11        11         1      2007    recall           pt00013   27775.15191       0.16675      65.07616       5.85855      97.80112       0.81439       0.00000      84.51531       7.80261      80.67252       0.00000       0.00000       0.00000       0.00000       0.00000       0.00000       0.00000       0.00000  
      12        12         1      2007    recall           pt00013   28319.30869       0.20586      60.12530       6.66060     100.29016       0.88753       0.00000     137.50745       6.86567     106.62890       0.00000       0.00000       0.00000       0.00000       0.00000       0.00000       0.00000       0.00000  
       1         1         1      2008    recall           pt00013   26035.95443       0.25345      44.20866       7.34734      93.17868       0.91144       0.00000     218.22007       4.35936     141.63448       0.00000       0.00000       0.00000       0.00000       0.00000       0.00000       0.00000       0.00000  
       2         2         1      2008    recall           pt00013   28031.82464       0.30837      41.42139       8.58906     100.89130       1.03804       0.00000     285.78772       3.61461     176.62651       0.00000       0.00000       0.00000       0.00000       0.00000       0.00000       0.00000       0.00000  
       3         3         1      2008    recall           pt00013   23400.41097       0.19429      61.01219       4.72088     121.63696       5.84805       0.00000      60.80821       2.33895     135.75524       0.00000       0.00000       0.00000       0.00000       0.00000       0.00000       0.00000       0.00000  
       4         4         1      2008    recall           pt00013   23400.41097       0.19429      61.01219       4.72088     121.63696       5.84805       0.00000      60.80821       2.33895     135.75524       0.00000       0.00000       0.00000       0.00000       0.00000       0.00000       0.00000       0.00000  
       5         5         1      2008    recall           pt00013   23400.41097       0.19429      61.01219       4.72088     121.63696       5.84805       0.00000      60.80821       2.33895     135.75524       0.00000       0.00000       0.00000       0.00000       0.00000       0.00000       0.00000       0.00000  
       6         6         1      2008    recall           pt00013   19676.46374       0.17851      37.88059       3.77946      27.55389      30.47867       0.00000      15.14307       1.84857     122.02145       0.00000       0.00000       0.00000       0.00000       0.00000       0.00000       0.00000       0.00000  
       7         7         1      2008    recall           pt00013   18109.00692       0.16430      42.20541       2.74283      20.69110      24.21653       0.00000      11.54885       1.84438      95.21824       0.00000       0.00000       0.00000       0.00000       0.00000       0.00000       0.00000       0.00000  
       8         8         1      2008    recall           pt00013   20830.74123       0.18898      64.72308       1.51551      13.47874      19.38585       0.00000       8.00781       2.43821      71.75243       0.00000       0.00000       0.00000       0.00000       0.00000       0.00000       0.00000       0.00000  
       9         9         1      2008    recall           pt00013   19643.16625       0.17821      68.96877       0.63242       7.66188      14.13459       0.00000       4.96900       2.45396      49.18595       0.00000       0.00000       0.00000       0.00000       0.00000       0.00000       0.00000       0.00000  
      10        10         1      2008    recall           pt00013   20880.43252       0.18943      51.60562       1.87958      19.21088       8.39106       0.00000      68.56927       2.21222      94.00468       0.00000       0.00000       0.00000       0.00000       0.00000       0.00000       0.00000       0.00000  
      11        11         1      2008    recall           pt00013   20915.25944       0.18975      29.94965       3.09516      30.33329       1.75710       0.00000     132.10066       1.81871     135.97246       0.00000       0.00000       0.00000       0.00000       0.00000       0.00000       0.00000       0.00000  
      12        12         1      2008    recall           pt00013   25455.10474       0.19208      55.47704       6.97169      58.42518       2.59393       0.00000     146.24220       3.01078     151.56379       0.00000       0.00000       0.00000       0.00000       0.00000       0.00000       0.00000       0.00000  
       1         1         1      2009    recall           pt00013   21050.93652       0.12631      61.67924       8.42037      66.31045       2.52611       0.00000     108.83334       3.15764     113.67506       0.00000       0.00000       0.00000       0.00000       0.00000       0.00000       0.00000       0.00000  
       2         2         1      2009    recall           pt00013   20725.74885       0.18798       1.28500       1.76169      25.69993       0.93266       0.00000      65.49337       2.86015     128.49964       0.00000       0.00000       0.00000       0.00000       0.00000       0.00000       0.00000       0.00000  
       3         3         1      2009    recall           pt00013   28041.79674       0.19629      40.66061       4.76711     126.74892       1.12167       0.00000      73.74993       2.80418     120.57973       0.00000       0.00000       0.00000       0.00000       0.00000       0.00000       0.00000       0.00000  
       4         4         1      2009    recall           pt00013   24021.00358       0.21619      24.50142       6.48567     118.90397       1.20105       0.00000      49.72348       3.84336     117.70292       0.00000       0.00000       0.00000       0.00000       0.00000       0.00000       0.00000       0.00000  
       5         5         1      2009    recall           pt00013   19908.16857       0.11945      38.02460       5.97245     100.93441       3.58347       0.00000      54.15022       1.99082      53.75206       0.00000       0.00000       0.00000       0.00000       0.00000       0.00000       0.00000       0.00000  
       6         6         1      2009    recall           pt00013   23230.59140       0.21070      37.37802       4.32089      44.60274       1.48676       0.00000       5.45919       0.60400      88.27625       0.00000       0.00000       0.00000       0.00000       0.00000       0.00000       0.00000       0.00000  
       7         7         1      2009    recall           pt00013   22558.58481       0.11279      50.53123       2.25586      93.39254       1.57910       0.00000       2.03027       0.67676      67.67575       0.00000       0.00000       0.00000       0.00000       0.00000       0.00000       0.00000       0.00000  
       8         8         1      2009    recall           pt00013   19262.34825       0.07705      39.10257       2.50411     105.36504       1.34836       0.00000       1.34836       0.57787      38.52470       0.00000       0.00000       0.00000       0.00000       0.00000       0.00000       0.00000       0.00000  
       9         9         1      2009    recall           pt00013   18740.73477       0.16997       0.00000       1.12444      50.41258       3.37333       0.00000      50.59998       1.79911      89.95553       0.00000       0.00000       0.00000       0.00000       0.00000       0.00000       0.00000       0.00000  
      10        10         1      2009    recall           pt00013   22414.34270       0.15690      61.19116       1.79315     123.72717       0.44829       0.00000       1.56900       1.79315      87.41594       0.00000       0.00000       0.00000       0.00000       0.00000       0.00000       0.00000       0.00000  
      11        11         1      2009    recall           pt00013   24633.45878       0.22342      38.23113       0.00000      82.76842       2.46335       0.00000      15.42055       1.52727      86.21711       0.00000       0.00000       0.00000       0.00000       0.00000       0.00000       0.00000       0.00000  
      12        12         1      2009    recall           pt00013   23017.48179       0.06905      48.10654       3.22245     133.50139       2.30175       0.00000      34.75640       2.07157      89.76818       0.00000       0.00000       0.00000       0.00000       0.00000       0.00000       0.00000       0.00000  
       1         1         1      2010    recall           pt00013   17960.46901       0.10776      71.94964       5.19058      85.85104       1.52664       0.00000      31.07161       1.50868     152.66399       0.00000       0.00000       0.00000       0.00000       0.00000       0.00000       0.00000       0.00000  
       2         2         1      2010    recall           pt00013   19542.38397       0.11725      37.89268       2.98998      93.21717       0.70353       0.00000      71.52513       1.77836     125.07126       0.00000       0.00000       0.00000       0.00000       0.00000       0.00000       0.00000       0.00000  
       3         3         1      2010    recall           pt00013   36573.21540       0.18287       2.48698       7.38779     144.09847       0.91433       0.00000     210.66172       2.26754     160.92215       0.00000       0.00000       0.00000       0.00000       0.00000       0.00000       0.00000       0.00000  
       4         4         1      2010    recall           pt00013   29891.44086       0.09565       0.00000       2.48099     121.06034       0.89674       0.00000     150.95178       3.01904     128.53320       0.00000       0.00000       0.00000       0.00000       0.00000       0.00000       0.00000       0.00000  
       5         5         1      2010    recall           pt00013   24966.02497       0.08488      80.81502       2.62143     105.85595       1.34817       0.00000      53.42729       5.81708      64.91166       0.00000       0.00000       0.00000       0.00000       0.00000       0.00000       0.00000       0.00000  
       6         6         1      2010    recall           pt00013   23891.77419       0.23414      45.70496       4.77835     129.01558       1.02735       0.00000       2.55642       2.15026     138.57229       0.00000       0.00000       0.00000       0.00000       0.00000       0.00000       0.00000       0.00000  
       7         7         1      2010    recall           pt00013   25096.77419       0.07780      37.01774       2.15832      67.25935       2.05794       0.00000       1.98265       2.66026      52.70323       0.00000       0.00000       0.00000       0.00000       0.00000       0.00000       0.00000       0.00000  
       8         8         1      2010    recall           pt00013   24804.41207       0.18851      60.29953       1.78592      77.14172       1.90994       0.00000       3.67105       2.50525      62.01103       0.00000       0.00000       0.00000       0.00000       0.00000       0.00000       0.00000       0.00000  
       9         9         1      2010    recall           pt00013   21789.31183       0.10459      21.48426       2.74545      59.26693       1.35094       0.00000       7.82236       6.86363      87.15725       0.00000       0.00000       0.00000       0.00000       0.00000       0.00000       0.00000       0.00000  
      10        10         1      2010    recall           pt00013   20497.11759       0.10659      24.63754       3.66898      71.12500       7.76841       0.00000       4.07893       4.07893      75.83934       0.00000       0.00000       0.00000       0.00000       0.00000       0.00000       0.00000       0.00000  
      11        11         1      2010    recall           pt00013   25585.12903       0.14328      48.63733       0.00000      69.07985       7.16384       0.00000       3.14697       3.22373      51.17026       0.00000       0.00000       0.00000       0.00000       0.00000       0.00000       0.00000       0.00000  
      12        12         1      2010    recall           pt00013   18721.74818       0.11233      54.51773       3.80051      60.09681       0.59910       0.00000      11.73854       2.82698      65.52612       0.00000       0.00000       0.00000       0.00000       0.00000       0.00000       0.00000       0.00000  
       1         1         1      2011    recall           pt00013   25918.51866       0.62204      41.36596      10.39333      54.42889       1.29593       0.00000     224.97274       0.62204     233.26667       0.00000       0.00000       0.00000       0.00000       0.00000       0.00000       0.00000       0.00000  
       2         2         1      2011    recall           pt00013   27611.17923       0.49700      84.07604      14.02648      50.80457       5.85357       0.00000     180.85322       1.79473     254.02285       0.00000       0.00000       0.00000       0.00000       0.00000       0.00000       0.00000       0.00000  
       3         3         1      2011    recall           pt00013   24410.80125       0.26852     102.15920       6.98149      38.56907      16.15995       0.00000     164.28469       2.56313     168.43453       0.00000       0.00000       0.00000       0.00000       0.00000       0.00000       0.00000       0.00000  
       4         4         1      2011    recall           pt00013   26198.73118       0.14671      18.70589       4.21800      30.12854      16.81959       0.00000      89.86165       1.46713     104.79492       0.00000       0.00000       0.00000       0.00000       0.00000       0.00000       0.00000       0.00000  
       5         5         1      2011    recall           pt00013   20911.22789       0.15474      57.63134       2.44661      89.29094       3.38762       0.00000      10.95748       0.62734      98.28277       0.00000       0.00000       0.00000       0.00000       0.00000       0.00000       0.00000       0.00000  
       6         6         1      2011    recall           pt00013   20020.87097       0.11612     106.33085      11.67217      87.29100       3.40355       0.00000       1.48154       1.70177      74.07722       0.00000       0.00000       0.00000       0.00000       0.00000       0.00000       0.00000       0.00000  
       7         7         1      2011    recall           pt00013   20952.44537       0.44000      68.38878       9.47051      67.04783       5.57335       0.00000       4.40001       7.24955     209.52445       0.00000       0.00000       0.00000       0.00000       0.00000       0.00000       0.00000       0.00000  
       8         8         1      2011    recall           pt00013   22021.98058       0.14535      54.65856       4.62462      88.30814      14.16013       0.00000       2.09209       7.11310      90.29012       0.00000       0.00000       0.00000       0.00000       0.00000       0.00000       0.00000       0.00000  
       9         9         1      2011    recall           pt00013   21344.49104       0.10245      45.18629       3.15898      80.68218       2.28386       0.00000       0.21344       0.27748      57.63013       0.00000       0.00000       0.00000       0.00000       0.00000       0.00000       0.00000       0.00000  
      10        10         1      2011    recall           pt00013   19016.62157       0.09889      41.01885       3.86037      74.16482       4.24071       0.00000       3.68922       0.55148      49.44322       0.00000       0.00000       0.00000       0.00000       0.00000       0.00000       0.00000       0.00000  
      11        11         1      2011    recall           pt00013   17786.91039       0.12807      55.26393       8.18198      55.67303       1.67197       0.00000       0.60475       1.04943     104.94277       0.00000       0.00000       0.00000       0.00000       0.00000       0.00000       0.00000       0.00000  
      12        12         1      2011    recall           pt00013   18250.26015       0.15330      24.91161       4.45306      80.48365       1.91628       0.00000       1.78853       0.49276     135.05193       0.00000       0.00000       0.00000       0.00000       0.00000       0.00000       0.00000       0.00000  
       1         1         1      2012    recall           pt00013   20364.15731       0.18328      59.87062       4.68376      91.63871       1.42549       0.00000       1.83277       0.81457     103.85720       0.00000       0.00000       0.00000       0.00000       0.00000       0.00000       0.00000       0.00000  
       2         2         1      2012    recall           pt00013   21256.22339       0.08928      39.60034       4.29376      89.27614       0.85025       0.00000      88.85101       3.33723      46.76369       0.00000       0.00000       0.00000       0.00000       0.00000       0.00000       0.00000       0.00000  
       3         3         1      2012    recall           pt00013   25025.22373       0.15015      79.58021       6.15621     128.12915       1.30131       0.00000      13.01312       1.50151     122.62360       0.00000       0.00000       0.00000       0.00000       0.00000       0.00000       0.00000       0.00000  
       4         4         1      2012    recall           pt00013   29925.01075       0.47880      94.80243      17.11711     114.61279       2.33415       0.00000       2.39400       0.65835     200.49757       0.00000       0.00000       0.00000       0.00000       0.00000       0.00000       0.00000       0.00000  
       5         5         1      2012    recall           pt00013   26516.33368       0.31820      82.12109       5.38282     146.37016       8.88297       0.00000       3.97745       0.87504     180.31107       0.00000       0.00000       0.00000       0.00000       0.00000       0.00000       0.00000       0.00000  
       6         6         1      2012    recall           pt00013   24270.32616       0.14562      55.14218       4.41720     103.87700       4.10169       0.00000       7.52380       2.37849     169.89228       0.00000       0.00000       0.00000       0.00000       0.00000       0.00000       0.00000       0.00000  
       7         7         1      2012    recall           pt00013   23489.59417       0.10335      41.29471       4.39255      85.73702       2.98318       0.00000       0.70469       1.45635     108.05213       0.00000       0.00000       0.00000       0.00000       0.00000       0.00000       0.00000       0.00000  
       8         8         1      2012    recall           pt00013   22901.91814       0.12367      41.86471       7.37442      73.51516       2.56501       0.00000       1.83215       1.19090      70.99595       0.00000       0.00000       0.00000       0.00000       0.00000       0.00000       0.00000       0.00000  
       9         9         1      2012    recall           pt00013   20519.63082       0.02052      51.44271       4.16549      67.50959       1.86729       0.00000       1.43637       0.67715      59.50693       0.00000       0.00000       0.00000       0.00000       0.00000       0.00000       0.00000       0.00000  
      10        10         1      2012    recall           pt00013   22975.19598       0.07130      42.58726       4.02925      87.02520       1.62369       0.00000       2.92559       1.53062      65.43050       0.00000       0.00000       0.00000       0.00000       0.00000       0.00000       0.00000       0.00000  
      11        11         1      2012    recall           pt00013   30217.13620       0.21301      18.96568       3.73296     142.67979       0.98290       0.00000       7.09865       3.91928      83.09929       0.00000       0.00000       0.00000       0.00000       0.00000       0.00000       0.00000       0.00000  
      12        12         1      2012    recall           pt00013   28631.48110       0.25968       0.00000       2.77725     148.88370       0.37221       0.00000       8.30313       4.63830      77.30500       0.00000       0.00000       0.00000       0.00000       0.00000       0.00000       0.00000       0.00000  
       1         1         1      2013    recall           pt00013   28475.57604       0.24594      38.00541       5.21620     144.78515       1.91238       0.00000      54.73250       8.85554     173.94383       0.00000       0.00000       0.00000       0.00000       0.00000       0.00000       0.00000       0.00000  
       2         2         1      2013    recall           pt00013   24368.11224       0.24744      61.92999       5.23712      85.07821       1.51127       0.00000       6.53026       5.70027     208.61713       0.00000       0.00000       0.00000       0.00000       0.00000       0.00000       0.00000       0.00000  
       3         3         1      2013    recall           pt00013   22395.16129       0.31933      67.14786      10.95190      56.71320       0.57411       0.00000       4.21516       2.19019     157.67877       0.00000       0.00000       0.00000       0.00000       0.00000       0.00000       0.00000       0.00000  
       4         4         1      2013    recall           pt00013   35790.00000       0.51908     109.09080      22.27642     115.64610       1.31899       0.00000     122.78915       7.08929     373.02334       0.00000       0.00000       0.00000       0.00000       0.00000       0.00000       0.00000       0.00000  
       5         5         1      2013    recall           pt00013   25185.33724       0.36551      56.11548       7.31540     108.18172       0.91202       0.00000      93.38739       4.20709     181.24919       0.00000       0.00000       0.00000       0.00000       0.00000       0.00000       0.00000       0.00000  
       6         6         1      2013    recall           pt00013   23635.15152       0.14756      81.88640       2.59302      88.79247       0.93098       0.00000       2.28026       2.00545      82.45387       0.00000       0.00000       0.00000       0.00000       0.00000       0.00000       0.00000       0.00000  
       7         7         1      2013    recall           pt00013   22182.55132       0.06706      47.82147       3.45603      63.98970       0.85949       0.00000       9.85007       1.39984      59.49857       0.00000       0.00000       0.00000       0.00000       0.00000       0.00000       0.00000       0.00000  
       8         8         1      2013    recall           pt00013   21755.69753       0.12014      51.63946       4.58473     101.20060       1.04420       0.00000       1.74193       0.57558      57.94863       0.00000       0.00000       0.00000       0.00000       0.00000       0.00000       0.00000       0.00000  
       9         9         1      2013    recall           pt00013   22939.52381       0.28136      43.67293       8.50041      95.57098       2.88385       0.00000       0.77914       0.29815     121.68673       0.00000       0.00000       0.00000       0.00000       0.00000       0.00000       0.00000       0.00000  
      10        10         1      2013    recall           pt00013   18932.25806       0.12047      26.61370       6.44903      88.78954       8.86666       0.00000       0.52669       0.26951      75.21497       0.00000       0.00000       0.00000       0.00000       0.00000       0.00000       0.00000       0.00000  
      11        11         1      2013    recall           pt00013   21901.90476       0.12926      44.35253       9.44154     130.73227       6.14043       0.00000       0.69274       0.54882      50.78839       0.00000       0.00000       0.00000       0.00000       0.00000       0.00000       0.00000       0.00000  
      12        12         1      2013    recall           pt00013   22875.28802       0.19930      64.00291       9.28586     121.13769       2.46959       0.00000       1.74113       1.41333     150.87669       0.00000       0.00000       0.00000       0.00000       0.00000       0.00000       0.00000       0.00000  
       1         1         1      2014    recall           pt00013   22898.44470       0.15725      52.81077       6.39853     106.85558       0.62398       0.00000      12.12040       1.17213     133.12376       0.00000       0.00000       0.00000       0.00000       0.00000       0.00000       0.00000       0.00000  
       2         2         1      2014    recall           pt00013   21059.92936       0.15267      28.95939       4.37230      93.25848       0.49384       0.00000     119.09853       2.29344     104.88293       0.00000       0.00000       0.00000       0.00000       0.00000       0.00000       0.00000       0.00000  
       3         3         1      2014    recall           pt00013   25970.29422       0.31323      97.92695       8.47204      82.38121       3.16027       0.00000      14.39750       1.43240     184.72548       0.00000       0.00000       0.00000       0.00000       0.00000       0.00000       0.00000       0.00000  
       4         4         1      2014    recall           pt00013   25730.47619       0.29640      72.58017       5.29809      69.45570       2.28283       0.00000      44.63699       4.81496     163.85535       0.00000       0.00000       0.00000       0.00000       0.00000       0.00000       0.00000       0.00000  
       5         5         1      2014    recall           pt00013   27400.46083       0.32637      38.41727       6.55912     128.47790       1.46573       0.00000      15.51894       2.43177     130.96046       0.00000       0.00000       0.00000       0.00000       0.00000       0.00000       0.00000       0.00000  
       6         6         1      2014    recall           pt00013   26608.09524       0.13983      55.56341       7.13189     112.44380       2.48508       0.00000       1.88807       0.78444      95.77767       0.00000       0.00000       0.00000       0.00000       0.00000       0.00000       0.00000       0.00000  
       7         7         1      2014    recall           pt00013   23684.94624       0.23201      43.66491       6.05438     107.92325       1.52011       0.00000       1.34331       0.43164     111.35038       0.00000       0.00000       0.00000       0.00000       0.00000       0.00000       0.00000       0.00000  
       8         8         1      2014    recall           pt00013   25654.68510       0.18243      67.94189       6.98712     122.41390       8.04817       0.00000       0.83094       0.72072     102.68033       0.00000       0.00000       0.00000       0.00000       0.00000       0.00000       0.00000       0.00000  
[...]
      11        11         1      2014    recall           pt00013   23053.17460       0.19675      70.06625       6.16972      98.68553       6.71107       0.00000       0.80596       0.51931      89.91197       0.00000       0.00000       0.00000       0.00000       0.00000       0.00000       0.00000       0.00000  
      12        12         1      2014    recall           pt00013   23565.43779       0.13519      39.64872       6.48295      65.44068       1.40624       0.00000       0.52551       0.25460     100.68552       0.00000       0.00000       0.00000       0.00000       0.00000       0.00000       0.00000       0.00000  
       1         1         1      2015    recall           pt00013   31173.50230       0.30258      73.35967       8.89279      77.31869       1.59592       0.00000      29.18975       9.31484     179.72522       0.00000       0.00000       0.00000       0.00000       0.00000       0.00000       0.00000       0.00000  
       2         2         1      2015    recall           pt00013   25172.70408       0.23971      71.21248       7.24361      63.00579       1.31569       0.00000      57.27365       5.37734     139.78510       0.00000       0.00000       0.00000       0.00000       0.00000       0.00000       0.00000       0.00000  
       3         3         1      2015    recall           pt00013   26649.30876       0.39369      75.75969      10.33463      94.66279       0.78618       0.00000       4.23118       0.99891     223.23511       0.00000       0.00000       0.00000       0.00000       0.00000       0.00000       0.00000       0.00000  
       4         4         1      2015    recall           pt00013   28931.66667       0.45942      62.93832       9.62042     151.56789       0.68355       0.00000       9.70608       1.74100     204.84992       0.00000       0.00000       0.00000       0.00000       0.00000       0.00000       0.00000       0.00000  
       5         5         1      2015    recall           pt00013   26268.89401       0.49231      80.03721       9.27503      97.33804       0.73187       0.00000      10.28384       1.36358     160.22755       0.00000       0.00000       0.00000       0.00000       0.00000       0.00000       0.00000       0.00000  
       6         6         1      2015    recall           pt00013   22440.47619       0.23119      60.16691       5.34396     128.76773       2.38724       0.00000       1.47568       0.54588      90.29616       0.00000       0.00000       0.00000       0.00000       0.00000       0.00000       0.00000       0.00000  
       7         7         1      2015    recall           pt00013   22629.33948       0.16296      36.21996       6.00998     149.51910       7.36967       0.00000       1.37835       0.64672      72.33466       0.00000       0.00000       0.00000       0.00000       0.00000       0.00000       0.00000       0.00000  
       8         8         1      2015    recall           pt00013   21688.40246       0.16818      45.95281       7.95286     122.91204       8.19452       0.00000       1.43479       0.76279      60.36704       0.00000       0.00000       0.00000       0.00000       0.00000       0.00000       0.00000       0.00000  
       9         9         1      2015    recall           pt00013   22164.04762       0.19900      41.68556       4.91694     120.36644      10.54849       0.00000      13.61323       5.78991     108.49840       0.00000       0.00000       0.00000       0.00000       0.00000       0.00000       0.00000       0.00000  
      10        10         1      2015    recall           pt00013   21072.11982       0.11952      49.38363       5.45097     102.40378       5.15243       0.00000       1.60878       0.63228      72.48138       0.00000       0.00000       0.00000       0.00000       0.00000       0.00000       0.00000       0.00000  
      11        11         1      2015    recall           pt00013   22529.28571       0.11292      55.54482       6.40817     115.45859       1.92307       0.00000       4.33308       4.27612     102.33913       0.00000       0.00000       0.00000       0.00000       0.00000       0.00000       0.00000       0.00000  
      12        12         1      2015    recall           pt00013   22235.94470       0.17491      45.97133       6.78287     128.41559       0.79310       0.00000       1.33497       4.35435      76.03853       0.00000       0.00000       0.00000       0.00000       0.00000       0.00000       0.00000       0.00000  
       1         1         1      2016    recall           pt00013   23490.78341       0.21425      41.59789       8.12297     166.42447       0.96138       0.00000       1.17605       5.19784     118.13368       0.00000       0.00000       0.00000       0.00000       0.00000       0.00000       0.00000       0.00000  
       2         2         1      2016    recall           pt00013   34765.88670       0.28683      72.16869      10.59415     176.96765      26.29946       0.00000       2.05632       2.61334      87.09359       0.00000       0.00000       0.00000       0.00000       0.00000       0.00000       0.00000       0.00000  
       3         3         1      2016    recall           pt00013   29162.78802       0.37646      85.56790      17.50878     175.01065       2.48323       0.00000       1.70727       0.71890     197.79067       0.00000       0.00000       0.00000       0.00000       0.00000       0.00000       0.00000       0.00000  
       4         4         1      2016    recall           pt00013   28466.90476       0.35687      74.13392      12.95970     118.72376       8.96294       0.00000       0.68066       0.72066     146.21233       0.00000       0.00000       0.00000       0.00000       0.00000       0.00000       0.00000       0.00000  
       5         5         1      2016    recall           pt00013   26074.88479       0.28165      63.33339       9.69107     132.38041       1.98308       0.00000       1.05821       0.78320     103.95538       0.00000       0.00000       0.00000       0.00000       0.00000       0.00000       0.00000       0.00000  
       6         6         1      2016    recall           pt00013   24547.33333       0.13835      55.35985       8.39128      95.52450       2.04825       0.00000       1.31833       1.24851      74.10850       0.00000       0.00000       0.00000       0.00000       0.00000       0.00000       0.00000       0.00000  
       7         7         1      2016    recall           pt00013   28243.59447       0.21236      75.75537       9.84518     156.77029       6.81265       0.00000       2.41572       1.69088     111.33498       0.00000       0.00000       0.00000       0.00000       0.00000       0.00000       0.00000       0.00000  
       8         8         1      2016    recall           pt00013   31164.97696       0.51052     105.32128       6.58035     109.76396      19.71511       0.00000      16.01744      12.48323     283.14879       0.00000       0.00000       0.00000       0.00000       0.00000       0.00000       0.00000       0.00000  
       9         9         1      2016    recall           pt00013   26531.80952       0.23784      62.05793       7.39221     123.16450       5.76674       0.00000       2.53045       1.65301     106.85201       0.00000       0.00000       0.00000       0.00000       0.00000       0.00000       0.00000       0.00000  
      10        10         1      2016    recall           pt00013   25536.72811       0.16730      58.29803       8.58649     115.06121       2.46730       0.00000       9.01990       0.75837      94.49486       0.00000       0.00000       0.00000       0.00000       0.00000       0.00000       0.00000       0.00000  
      11        11         1      2016    recall           pt00013   33836.90476       0.26188      72.51131       6.10715     192.30263       2.20995       0.00000      34.73699       2.28461     151.22108       0.00000       0.00000       0.00000       0.00000       0.00000       0.00000       0.00000       0.00000  
      12        12         1      2016    recall           pt00013   41491.69719       0.38264      71.23086       7.50986     251.34555       5.85628       0.00000      11.03817       1.31238     166.26602       0.00000       0.00000       0.00000       0.00000       0.00000       0.00000       0.00000       0.00000  
       1         1         1      2017    recall           pt00013   33300.75291       0.37810      81.91985      11.28896     158.04537       4.32910       0.00000      21.01278       2.56416     175.79467       0.00000       0.00000       0.00000       0.00000       0.00000       0.00000       0.00000       0.00000  
       2         2         1      2017    recall           pt00013   33300.75291       0.37810      81.91985      11.28896     158.04537       4.32910       0.00000      21.01278       2.56416     175.79467       0.00000       0.00000       0.00000       0.00000       0.00000       0.00000       0.00000       0.00000  
       3         3         1      2017    recall           pt00013   33300.75291       0.37810      81.91985      11.28896     158.04537       4.32910       0.00000      21.01278       2.56416     175.79467       0.00000       0.00000       0.00000       0.00000       0.00000       0.00000       0.00000       0.00000  
       4         4         1      2017    recall           pt00013   33300.75291       0.37810      81.91985      11.28896     158.04537       4.32910       0.00000      21.01278       2.56416     175.79467       0.00000       0.00000       0.00000       0.00000       0.00000       0.00000       0.00000       0.00000  
       5         5         1      2017    recall           pt00013   33300.75291       0.37810      81.91985      11.28896     158.04537       4.32910       0.00000      21.01278       2.56416     175.79467       0.00000       0.00000       0.00000       0.00000       0.00000       0.00000       0.00000       0.00000  
       6         6         1      2017    recall           pt00013   33300.75291       0.37810      81.91985      11.28896     158.04537       4.32910       0.00000      21.01278       2.56416     175.79467       0.00000       0.00000       0.00000       0.00000       0.00000       0.00000       0.00000       0.00000  
       7         7         1      2017    recall           pt00013   33300.75291       0.37810      81.91985      11.28896     158.04537       4.32910       0.00000      21.01278       2.56416     175.79467       0.00000       0.00000       0.00000       0.00000       0.00000       0.00000       0.00000       0.00000  
       8         8         1      2017    recall           pt00013   33300.75291       0.37810      81.91985      11.28896     158.04537       4.32910       0.00000      21.01278       2.56416     175.79467       0.00000       0.00000       0.00000       0.00000       0.00000       0.00000       0.00000       0.00000  
       9         9         1      2017    recall           pt00013   33300.75291       0.37810      81.91985      11.28896     158.04537       4.32910       0.00000      21.01278       2.56416     175.79467       0.00000       0.00000       0.00000       0.00000       0.00000       0.00000       0.00000       0.00000  
      10        10         1      2017    recall           pt00013   33300.75291       0.37810      81.91985      11.28896     158.04537       4.32910       0.00000      21.01278       2.56416     175.79467       0.00000       0.00000       0.00000       0.00000       0.00000       0.00000       0.00000       0.00000  
      11        11         1      2017    recall           pt00013   33300.75291       0.37810      81.91985      11.28896     158.04537       4.32910       0.00000      21.01278       2.56416     175.79467       0.00000       0.00000       0.00000       0.00000       0.00000       0.00000       0.00000       0.00000  
      12        12         1      2017    recall           pt00013   33300.75291       0.37810      81.91985      11.28896     158.04537       4.32910       0.00000      21.01278       2.56416     175.79467       0.00000       0.00000       0.00000       0.00000       0.00000       0.00000       0.00000       0.00000  
       1         1         1      2018    recall           pt00013   29942.23135       0.29511      77.13119       9.13238     129.17079       3.14393       0.00000      22.96569       2.51515     163.57441       0.00000       0.00000       0.00000       0.00000       0.00000       0.00000       0.00000       0.00000  
       2         2         1      2018    recall           pt00013   29942.23135       0.29511      77.13119       9.13238     129.17079       3.14393       0.00000      22.96569       2.51515     163.57441       0.00000       0.00000       0.00000       0.00000       0.00000       0.00000       0.00000       0.00000  
       3         3         1      2018    recall           pt00013   29942.23135       0.29511      77.13119       9.13238     129.17079       3.14393       0.00000      22.96569       2.51515     163.57441       0.00000       0.00000       0.00000       0.00000       0.00000       0.00000       0.00000       0.00000  
       4         4         1      2018    recall           pt00013   29942.23135       0.29511      77.13119       9.13238     129.17079       3.14393       0.00000      22.96569       2.51515     163.57441       0.00000       0.00000       0.00000       0.00000       0.00000       0.00000       0.00000       0.00000  
       5         5         1      2018    recall           pt00013   29942.23135       0.29511      77.13119       9.13238     129.17079       3.14393       0.00000      22.96569       2.51515     163.57441       0.00000       0.00000       0.00000       0.00000       0.00000       0.00000       0.00000       0.00000  
       6         6         1      2018    recall           pt00013   29942.23135       0.29511      77.13119       9.13238     129.17079       3.14393       0.00000      22.96569       2.51515     163.57441       0.00000       0.00000       0.00000       0.00000       0.00000       0.00000       0.00000       0.00000  
       7         7         1      2018    recall           pt00013   29942.23135       0.29511      77.13119       9.13238     129.17079       3.14393       0.00000      22.96569       2.51515     163.57441       0.00000       0.00000       0.00000       0.00000       0.00000       0.00000       0.00000       0.00000  
       8         8         1      2018    recall           pt00013   29942.23135       0.29511      77.13119       9.13238     129.17079       3.14393       0.00000      22.96569       2.51515     163.57441       0.00000       0.00000       0.00000       0.00000       0.00000       0.00000       0.00000       0.00000  
       9         9         1      2018    recall           pt00013   29942.23135       0.29511      77.13119       9.13238     129.17079       3.14393       0.00000      22.96569       2.51515     163.57441       0.00000       0.00000       0.00000       0.00000       0.00000       0.00000       0.00000       0.00000  
      10        10         1      2018    recall           pt00013   29942.23135       0.29511      77.13119       9.13238     129.17079       3.14393       0.00000      22.96569       2.51515     163.57441       0.00000       0.00000       0.00000       0.00000       0.00000       0.00000       0.00000       0.00000  
      11        11         1      2018    recall           pt00013   29942.23135       0.29511      77.13119       9.13238     129.17079       3.14393       0.00000      22.96569       2.51515     163.57441       0.00000       0.00000       0.00000       0.00000       0.00000       0.00000       0.00000       0.00000  
      12        12         1      2018    recall           pt00013   29942.23135       0.29511      77.13119       9.13238     129.17079       3.14393       0.00000      22.96569       2.51515     163.57441       0.00000       0.00000       0.00000       0.00000       0.00000       0.00000       0.00000       0.00000  
       1         1         1      2019    recall           pt00013   29605.47570       0.27492      66.61232      11.42771     119.31007       5.06254       0.00000      12.58233       1.50988     161.73471       0.00000       0.00000       0.00000       0.00000       0.00000       0.00000       0.00000       0.00000  
       2         2         1      2019    recall           pt00013   29605.47570       0.27492      66.61232      11.42771     119.31007       5.06254       0.00000      12.58233       1.50988     161.73471       0.00000       0.00000       0.00000       0.00000       0.00000       0.00000       0.00000       0.00000  
       3         3         1      2019    recall           pt00013   29605.47570       0.27492      66.61232      11.42771     119.31007       5.06254       0.00000      12.58233       1.50988     161.73471       0.00000       0.00000       0.00000       0.00000       0.00000       0.00000       0.00000       0.00000  
       4         4         1      2019    recall           pt00013   29605.47570       0.27492      66.61232      11.42771     119.31007       5.06254       0.00000      12.58233       1.50988     161.73471       0.00000       0.00000       0.00000       0.00000       0.00000       0.00000       0.00000       0.00000  
       5         5         1      2019    recall           pt00013   29605.47570       0.27492      66.61232      11.42771     119.31007       5.06254       0.00000      12.58233       1.50988     161.73471       0.00000       0.00000       0.00000       0.00000       0.00000       0.00000       0.00000       0.00000  
       6         6         1      2019    recall           pt00013   29605.47570       0.27492      66.61232      11.42771     119.31007       5.06254       0.00000      12.58233       1.50988     161.73471       0.00000       0.00000       0.00000       0.00000       0.00000       0.00000       0.00000       0.00000  
       7         7         1      2019    recall           pt00013   29605.47570       0.27492      66.61232      11.42771     119.31007       5.06254       0.00000      12.58233       1.50988     161.73471       0.00000       0.00000       0.00000       0.00000       0.00000       0.00000       0.00000       0.00000  
       8         8         1      2019    recall           pt00013   29605.47570       0.27492      66.61232      11.42771     119.31007       5.06254       0.00000      12.58233       1.50988     161.73471       0.00000       0.00000       0.00000       0.00000       0.00000       0.00000       0.00000       0.00000  
       9         9         1      2019    recall           pt00013   29605.47570       0.27492      66.61232      11.42771     119.31007       5.06254       0.00000      12.58233       1.50988     161.73471       0.00000       0.00000       0.00000       0.00000       0.00000       0.00000       0.00000       0.00000  
      10        10         1      2019    recall           pt00013   29605.47570       0.27492      66.61232      11.42771     119.31007       5.06254       0.00000      12.58233       1.50988     161.73471       0.00000       0.00000       0.00000       0.00000       0.00000       0.00000       0.00000       0.00000  
      11        11         1      2019    recall           pt00013   29605.47570       0.27492      66.61232      11.42771     119.31007       5.06254       0.00000      12.58233       1.50988     161.73471       0.00000       0.00000       0.00000       0.00000       0.00000       0.00000       0.00000       0.00000  
      12        12         1      2019    recall           pt00013   29605.47570       0.27492      66.61232      11.42771     119.31007       5.06254       0.00000      12.58233       1.50988     161.73471       0.00000       0.00000       0.00000       0.00000       0.00000       0.00000       0.00000       0.00000  
