recall.rec: written by SWAT+ editor v2.0.0 on 2022-02-14 13:07
26
    jday        mo    day_mo       iyr    ob_typ           ob_name           flo           sed         ptl_n         ptl_p         no3_n         sol_p          chla         nh3_n         no2_n       cbn_bod           oxy          sand          silt          clay        sm_agg        lg_agg        gravel           tmp  
       1         1         1      1994    recall           pt00017       0.00000       0.00000       0.00000       0.00000       0.00000       0.00000       0.00000       0.00000       0.00000       0.00000       0.00000       0.00000       0.00000       0.00000       0.00000       0.00000       0.00000       0.00000  
       2         2         1      1994    recall           pt00017       0.00000       0.00000       0.00000       0.00000       0.00000       0.00000       0.00000       0.00000       0.00000       0.00000       0.00000       0.00000       0.00000       0.00000       0.00000       0.00000       0.00000       0.00000  
       3         3         1      1994    recall           pt00017       0.00000       0.00000       0.00000       0.00000       0.00000       0.00000       0.00000       0.00000       0.00000       0.00000       0.00000       0.00000       0.00000       0.00000       0.00000       0.00000       0.00000       0.00000  
       4         4         1      1994    recall           pt00017       0.00000       0.00000       0.00000       0.00000       0.00000       0.00000       0.00000       0.00000       0.00000       0.00000       0.00000       0.00000       0.00000       0.00000       0.00000       0.00000       0.00000       0.00000  
       5         5         1      1994    recall           pt00017       0.00000       0.00000       0.00000       0.00000       0.00000       0.00000       0.00000       0.00000       0.00000       0.00000       0.00000       0.00000       0.00000       0.00000       0.00000       0.00000       0.00000       0.00000  
       6         6         1      1994    recall           pt00017       0.00000       0.00000       0.00000       0.00000       0.00000       0.00000       0.00000       0.00000       0.00000       0.00000       0.00000       0.00000       0.00000       0.00000       0.00000       0.00000       0.00000       0.00000  
       7         7         1      1994    recall           pt00017       0.00000       0.00000       0.00000       0.00000       0.00000       0.00000       0.00000       0.00000       0.00000       0.00000       0.00000       0.00000       0.00000       0.00000       0.00000       0.00000       0.00000       0.00000  
       8         8         1      1994    recall           pt00017       0.00000       0.00000       0.00000       0.00000       0.00000       0.00000       0.00000       0.00000       0.00000       0.00000       0.00000       0.00000       0.00000       0.00000       0.00000       0.00000       0.00000       0.00000  
       9         9         1      1994    recall           pt00017       0.00000       0.00000       0.00000       0.00000       0.00000       0.00000       0.00000       0.00000       0.00000       0.00000       0.00000       0.00000       0.00000       0.00000       0.00000       0.00000       0.00000       0.00000  
      10        10         1      1994    recall           pt00017       0.00000       0.00000       0.00000       0.00000       0.00000       0.00000       0.00000       0.00000       0.00000       0.00000       0.00000       0.00000       0.00000       0.00000       0.00000       0.00000       0.00000       0.00000  
      11        11         1      1994    recall           pt00017       0.00000       0.00000       0.00000       0.00000       0.00000       0.00000       0.00000       0.00000       0.00000       0.00000       0.00000       0.00000       0.00000       0.00000       0.00000       0.00000       0.00000       0.00000  
      12        12         1      1994    recall           pt00017       0.00000       0.00000       0.00000       0.00000       0.00000       0.00000       0.00000       0.00000       0.00000       0.00000       0.00000       0.00000       0.00000       0.00000       0.00000       0.00000       0.00000       0.00000  
       1         1         1      1995    recall           pt00017       0.00000       0.00000       0.00000       0.00000       0.00000       0.00000       0.00000       0.00000       0.00000       0.00000       0.00000       0.00000       0.00000       0.00000       0.00000       0.00000       0.00000       0.00000  
       2         2         1      1995    recall           pt00017       0.00000       0.00000       0.00000       0.00000       0.00000       0.00000       0.00000       0.00000       0.00000       0.00000       0.00000       0.00000       0.00000       0.00000       0.00000       0.00000       0.00000       0.00000  
       3         3         1      1995    recall           pt00017       0.00000       0.00000       0.00000       0.00000       0.00000       0.00000       0.00000       0.00000       0.00000       0.00000       0.00000       0.00000       0.00000       0.00000       0.00000       0.00000       0.00000       0.00000  
       4         4         1      1995    recall           pt00017       0.00000       0.00000       0.00000       0.00000       0.00000       0.00000       0.00000       0.00000       0.00000       0.00000       0.00000       0.00000       0.00000       0.00000       0.00000       0.00000       0.00000       0.00000  
       5         5         1      1995    recall           pt00017       0.00000       0.00000       0.00000       0.00000       0.00000       0.00000       0.00000       0.00000       0.00000       0.00000       0.00000       0.00000       0.00000       0.00000       0.00000       0.00000       0.00000       0.00000  
       6         6         1      1995    recall           pt00017       0.00000       0.00000       0.00000       0.00000       0.00000       0.00000       0.00000       0.00000       0.00000       0.00000       0.00000       0.00000       0.00000       0.00000       0.00000       0.00000       0.00000       0.00000  
       7         7         1      1995    recall           pt00017       0.00000       0.00000       0.00000       0.00000       0.00000       0.00000       0.00000       0.00000       0.00000       0.00000       0.00000       0.00000       0.00000       0.00000       0.00000       0.00000       0.00000       0.00000  
       8         8         1      1995    recall           pt00017       0.00000       0.00000       0.00000       0.00000       0.00000       0.00000       0.00000       0.00000       0.00000       0.00000       0.00000       0.00000       0.00000       0.00000       0.00000       0.00000       0.00000       0.00000  
       9         9         1      1995    recall           pt00017       0.00000       0.00000       0.00000       0.00000       0.00000       0.00000       0.00000       0.00000       0.00000       0.00000       0.00000       0.00000       0.00000       0.00000       0.00000       0.00000       0.00000       0.00000  
      10        10         1      1995    recall           pt00017       0.00000       0.00000       0.00000       0.00000       0.00000       0.00000       0.00000       0.00000       0.00000       0.00000       0.00000       0.00000       0.00000       0.00000       0.00000       0.00000       0.00000       0.00000  
      11        11         1      1995    recall           pt00017       0.00000       0.00000       0.00000       0.00000       0.00000       0.00000       0.00000       0.00000       0.00000       0.00000       0.00000       0.00000       0.00000       0.00000       0.00000       0.00000       0.00000       0.00000  
      12        12         1      1995    recall           pt00017       0.00000       0.00000       0.00000       0.00000       0.00000       0.00000       0.00000       0.00000       0.00000       0.00000       0.00000       0.00000       0.00000       0.00000       0.00000       0.00000       0.00000       0.00000  
       1         1         1      1996    recall           pt00017       0.00000       0.00000       0.00000       0.00000       0.00000       0.00000       0.00000       0.00000       0.00000       0.00000       0.00000       0.00000       0.00000       0.00000       0.00000       0.00000       0.00000       0.00000  
       2         2         1      1996    recall           pt00017       0.00000       0.00000       0.00000       0.00000       0.00000       0.00000       0.00000       0.00000       0.00000       0.00000       0.00000       0.00000       0.00000       0.00000       0.00000       0.00000       0.00000       0.00000  
       3         3         1      1996    recall           pt00017       0.00000       0.00000       0.00000       0.00000       0.00000       0.00000       0.00000       0.00000       0.00000       0.00000       0.00000       0.00000       0.00000       0.00000       0.00000       0.00000       0.00000       0.00000  
       4         4         1      1996    recall           pt00017       0.00000       0.00000       0.00000       0.00000       0.00000       0.00000       0.00000       0.00000       0.00000       0.00000       0.00000       0.00000       0.00000       0.00000       0.00000       0.00000       0.00000       0.00000  
       5         5         1      1996    recall           pt00017       0.00000       0.00000       0.00000       0.00000       0.00000       0.00000       0.00000       0.00000       0.00000       0.00000       0.00000       0.00000       0.00000       0.00000       0.00000       0.00000       0.00000       0.00000  
       6         6         1      1996    recall           pt00017       0.00000       0.00000       0.00000       0.00000       0.00000       0.00000       0.00000       0.00000       0.00000       0.00000       0.00000       0.00000       0.00000       0.00000       0.00000       0.00000       0.00000       0.00000  
       7         7         1      1996    recall           pt00017       0.00000       0.00000       0.00000       0.00000       0.00000       0.00000       0.00000       0.00000       0.00000       0.00000       0.00000       0.00000       0.00000       0.00000       0.00000       0.00000       0.00000       0.00000  
       8         8         1      1996    recall           pt00017       0.00000       0.00000       0.00000       0.00000       0.00000       0.00000       0.00000       0.00000       0.00000       0.00000       0.00000       0.00000       0.00000       0.00000       0.00000       0.00000       0.00000       0.00000  
       9         9         1      1996    recall           pt00017       0.00000       0.00000       0.00000       0.00000       0.00000       0.00000       0.00000       0.00000       0.00000       0.00000       0.00000       0.00000       0.00000       0.00000       0.00000       0.00000       0.00000       0.00000  
      10        10         1      1996    recall           pt00017       0.00000       0.00000       0.00000       0.00000       0.00000       0.00000       0.00000       0.00000       0.00000       0.00000       0.00000       0.00000       0.00000       0.00000       0.00000       0.00000       0.00000       0.00000  
      11        11         1      1996    recall           pt00017       0.00000       0.00000       0.00000       0.00000       0.00000       0.00000       0.00000       0.00000       0.00000       0.00000       0.00000       0.00000       0.00000       0.00000       0.00000       0.00000       0.00000       0.00000  
      12        12         1      1996    recall           pt00017       0.00000       0.00000       0.00000       0.00000       0.00000       0.00000       0.00000       0.00000       0.00000       0.00000       0.00000       0.00000       0.00000       0.00000       0.00000       0.00000       0.00000       0.00000  
       1         1         1      1997    recall           pt00017      46.54446       0.00111       0.00000       0.00000       0.00000       0.00000       0.00000       0.00000       0.00000       0.00000       0.00000       0.00000       0.00000       0.00000       0.00000       0.00000       0.00000       0.00000  
       2         2         1      1997    recall           pt00017      46.54446       0.00111       0.00000       0.00000       0.00000       0.00000       0.00000       0.00000       0.00000       0.00000       0.00000       0.00000       0.00000       0.00000       0.00000       0.00000       0.00000       0.00000  
       3         3         1      1997    recall           pt00017      46.54446       0.00111       0.00000       0.00000       0.00000       0.00000       0.00000       0.00000       0.00000       0.00000       0.00000       0.00000       0.00000       0.00000       0.00000       0.00000       0.00000       0.00000  
       4         4         1      1997    recall           pt00017      46.54446       0.00111       0.00000       0.00000       0.00000       0.00000       0.00000       0.00000       0.00000       0.00000       0.00000       0.00000       0.00000       0.00000       0.00000       0.00000       0.00000       0.00000  
       5         5         1      1997    recall           pt00017      46.54446       0.00111       0.00000       0.00000       0.00000       0.00000       0.00000       0.00000       0.00000       0.00000       0.00000       0.00000       0.00000       0.00000       0.00000       0.00000       0.00000       0.00000  
       6         6         1      1997    recall           pt00017      46.54446       0.00111       0.00000       0.00000       0.00000       0.00000       0.00000       0.00000       0.00000       0.00000       0.00000       0.00000       0.00000       0.00000       0.00000       0.00000       0.00000       0.00000  
       7         7         1      1997    recall           pt00017      46.54446       0.00111       0.00000       0.00000       0.00000       0.00000       0.00000       0.00000       0.00000       0.00000       0.00000       0.00000       0.00000       0.00000       0.00000       0.00000       0.00000       0.00000  
       8         8         1      1997    recall           pt00017      46.54446       0.00111       0.00000       0.00000       0.00000       0.00000       0.00000       0.00000       0.00000       0.00000       0.00000       0.00000       0.00000       0.00000       0.00000       0.00000       0.00000       0.00000  
       9         9         1      1997    recall           pt00017      46.54446       0.00111       0.00000       0.00000       0.00000       0.00000       0.00000       0.00000       0.00000       0.00000       0.00000       0.00000       0.00000       0.00000       0.00000       0.00000       0.00000       0.00000  
      10        10         1      1997    recall           pt00017      46.54446       0.00111       0.00000       0.00000       0.00000       0.00000       0.00000       0.00000       0.00000       0.00000       0.00000       0.00000       0.00000       0.00000       0.00000       0.00000       0.00000       0.00000  
      11        11         1      1997    recall           pt00017      46.54446       0.00111       0.00000       0.00000       0.00000       0.00000       0.00000       0.00000       0.00000       0.00000       0.00000       0.00000       0.00000       0.00000       0.00000       0.00000       0.00000       0.00000  
      12        12         1      1997    recall           pt00017      46.54446       0.00111       0.00000       0.00000       0.00000       0.00000       0.00000       0.00000       0.00000       0.00000       0.00000       0.00000       0.00000       0.00000       0.00000       0.00000       0.00000       0.00000  
       1         1         1      1998    recall           pt00017      60.23400       0.00111       0.39443       0.16677       0.32017       0.16677       0.00000       0.91667       0.00000       1.07052       0.00000       0.00000       0.00000       0.00000       0.00000       0.00000       0.00000       0.00000  
       2         2         1      1998    recall           pt00017      60.23400       0.00111       0.39443       0.16677       0.32017       0.16677       0.00000       0.91667       0.00000       1.07052       0.00000       0.00000       0.00000       0.00000       0.00000       0.00000       0.00000       0.00000  
       3         3         1      1998    recall           pt00017      60.23400       0.00111       0.39443       0.16677       0.32017       0.16677       0.00000       0.91667       0.00000       1.07052       0.00000       0.00000       0.00000       0.00000       0.00000       0.00000       0.00000       0.00000  
       4         4         1      1998    recall           pt00017      60.23400       0.00111       0.39443       0.16677       0.32017       0.16677       0.00000       0.91667       0.00000       1.07052       0.00000       0.00000       0.00000       0.00000       0.00000       0.00000       0.00000       0.00000  
       5         5         1      1998    recall           pt00017      60.23400       0.00111       0.39443       0.16677       0.32017       0.16677       0.00000       0.91667       0.00000       1.07052       0.00000       0.00000       0.00000       0.00000       0.00000       0.00000       0.00000       0.00000  
       6         6         1      1998    recall           pt00017      60.23400       0.00111       0.39443       0.16677       0.32017       0.16677       0.00000       0.91667       0.00000       1.07052       0.00000       0.00000       0.00000       0.00000       0.00000       0.00000       0.00000       0.00000  
       7         7         1      1998    recall           pt00017      60.23400       0.00111       0.39443       0.16677       0.32017       0.16677       0.00000       0.91667       0.00000       1.07052       0.00000       0.00000       0.00000       0.00000       0.00000       0.00000       0.00000       0.00000  
       8         8         1      1998    recall           pt00017      60.23400       0.00111       0.39443       0.16677       0.32017       0.16677       0.00000       0.91667       0.00000       1.07052       0.00000       0.00000       0.00000       0.00000       0.00000       0.00000       0.00000       0.00000  
       9         9         1      1998    recall           pt00017      60.23400       0.00111       0.39443       0.16677       0.32017       0.16677       0.00000       0.91667       0.00000       1.07052       0.00000       0.00000       0.00000       0.00000       0.00000       0.00000       0.00000       0.00000  
      10        10         1      1998    recall           pt00017      60.23400       0.00111       0.39443       0.16677       0.32017       0.16677       0.00000       0.91667       0.00000       1.07052       0.00000       0.00000       0.00000       0.00000       0.00000       0.00000       0.00000       0.00000  
      11        11         1      1998    recall           pt00017      60.23400       0.00111       0.39443       0.16677       0.32017       0.16677       0.00000       0.91667       0.00000       1.07052       0.00000       0.00000       0.00000       0.00000       0.00000       0.00000       0.00000       0.00000  
      12        12         1      1998    recall           pt00017      60.23400       0.00111       0.39443       0.16677       0.32017       0.16677       0.00000       0.91667       0.00000       1.07052       0.00000       0.00000       0.00000       0.00000       0.00000       0.00000       0.00000       0.00000  
       1         1         1      1999    recall           pt00017      54.75819       0.00082       0.38565       0.16241       0.28943       0.16241       0.00000       0.89188       0.00000       1.05410       0.00000       0.00000       0.00000       0.00000       0.00000       0.00000       0.00000       0.00000  
       2         2         1      1999    recall           pt00017      54.75819       0.00082       0.38565       0.16241       0.28943       0.16241       0.00000       0.89188       0.00000       1.05410       0.00000       0.00000       0.00000       0.00000       0.00000       0.00000       0.00000       0.00000  
       3         3         1      1999    recall           pt00017      54.75819       0.00082       0.38565       0.16241       0.28943       0.16241       0.00000       0.89188       0.00000       1.05410       0.00000       0.00000       0.00000       0.00000       0.00000       0.00000       0.00000       0.00000  
       4         4         1      1999    recall           pt00017      54.75819       0.00082       0.38565       0.16241       0.28943       0.16241       0.00000       0.89188       0.00000       1.05410       0.00000       0.00000       0.00000       0.00000       0.00000       0.00000       0.00000       0.00000  
       5         5         1      1999    recall           pt00017      54.75819       0.00082       0.38565       0.16241       0.28943       0.16241       0.00000       0.89188       0.00000       1.05410       0.00000       0.00000       0.00000       0.00000       0.00000       0.00000       0.00000       0.00000  
       6         6         1      1999    recall           pt00017      54.75819       0.00082       0.38565       0.16241       0.28943       0.16241       0.00000       0.89188       0.00000       1.05410       0.00000       0.00000       0.00000       0.00000       0.00000       0.00000       0.00000       0.00000  
       7         7         1      1999    recall           pt00017      54.75819       0.00082       0.38565       0.16241       0.28943       0.16241       0.00000       0.89188       0.00000       1.05410       0.00000       0.00000       0.00000       0.00000       0.00000       0.00000       0.00000       0.00000  
       8         8         1      1999    recall           pt00017      54.75819       0.00082       0.38565       0.16241       0.28943       0.16241       0.00000       0.89188       0.00000       1.05410       0.00000       0.00000       0.00000       0.00000       0.00000       0.00000       0.00000       0.00000  
       9         9         1      1999    recall           pt00017      54.75819       0.00082       0.38565       0.16241       0.28943       0.16241       0.00000       0.89188       0.00000       1.05410       0.00000       0.00000       0.00000       0.00000       0.00000       0.00000       0.00000       0.00000  
      10        10         1      1999    recall           pt00017      54.75819       0.00082       0.38565       0.16241       0.28943       0.16241       0.00000       0.89188       0.00000       1.05410       0.00000       0.00000       0.00000       0.00000       0.00000       0.00000       0.00000       0.00000  
      11        11         1      1999    recall           pt00017      54.75819       0.00082       0.38565       0.16241       0.28943       0.16241       0.00000       0.89188       0.00000       1.05410       0.00000       0.00000       0.00000       0.00000       0.00000       0.00000       0.00000       0.00000  
      12        12         1      1999    recall           pt00017      54.75819       0.00082       0.38565       0.16241       0.28943       0.16241       0.00000       0.89188       0.00000       1.05410       0.00000       0.00000       0.00000       0.00000       0.00000       0.00000       0.00000       0.00000  
       1         1         1      2000    recall           pt00017      46.54446       0.00080       0.29330       0.12512       0.29163       0.12512       0.00000       0.70490       0.00000       0.71459       0.00000       0.00000       0.00000       0.00000       0.00000       0.00000       0.00000       0.00000  
       2         2         1      2000    recall           pt00017      46.54446       0.00080       0.29330       0.12512       0.29163       0.12512       0.00000       0.70490       0.00000       0.71459       0.00000       0.00000       0.00000       0.00000       0.00000       0.00000       0.00000       0.00000  
       3         3         1      2000    recall           pt00017      46.54446       0.00080       0.29330       0.12512       0.29163       0.12512       0.00000       0.70490       0.00000       0.71459       0.00000       0.00000       0.00000       0.00000       0.00000       0.00000       0.00000       0.00000  
       4         4         1      2000    recall           pt00017      46.54446       0.00080       0.29330       0.12512       0.29163       0.12512       0.00000       0.70490       0.00000       0.71459       0.00000       0.00000       0.00000       0.00000       0.00000       0.00000       0.00000       0.00000  
       5         5         1      2000    recall           pt00017      46.54446       0.00080       0.29330       0.12512       0.29163       0.12512       0.00000       0.70490       0.00000       0.71459       0.00000       0.00000       0.00000       0.00000       0.00000       0.00000       0.00000       0.00000  
       6         6         1      2000    recall           pt00017      46.54446       0.00080       0.29330       0.12512       0.29163       0.12512       0.00000       0.70490       0.00000       0.71459       0.00000       0.00000       0.00000       0.00000       0.00000       0.00000       0.00000       0.00000  
       7         7         1      2000    recall           pt00017      46.54446       0.00080       0.29330       0.12512       0.29163       0.12512       0.00000       0.70490       0.00000       0.71459       0.00000       0.00000       0.00000       0.00000       0.00000       0.00000       0.00000       0.00000  
       8         8         1      2000    recall           pt00017      46.54446       0.00080       0.29330       0.12512       0.29163       0.12512       0.00000       0.70490       0.00000       0.71459       0.00000       0.00000       0.00000       0.00000       0.00000       0.00000       0.00000       0.00000  
       9         9         1      2000    recall           pt00017      46.54446       0.00080       0.29330       0.12512       0.29163       0.12512       0.00000       0.70490       0.00000       0.71459       0.00000       0.00000       0.00000       0.00000       0.00000       0.00000       0.00000       0.00000  
      10        10         1      2000    recall           pt00017      46.54446       0.00080       0.29330       0.12512       0.29163       0.12512       0.00000       0.70490       0.00000       0.71459       0.00000       0.00000       0.00000       0.00000       0.00000       0.00000       0.00000       0.00000  
      11        11         1      2000    recall           pt00017      46.54446       0.00080       0.29330       0.12512       0.29163       0.12512       0.00000       0.70490       0.00000       0.71459       0.00000       0.00000       0.00000       0.00000       0.00000       0.00000       0.00000       0.00000  
      12        12         1      2000    recall           pt00017      46.54446       0.00080       0.29330       0.12512       0.29163       0.12512       0.00000       0.70490       0.00000       0.71459       0.00000       0.00000       0.00000       0.00000       0.00000       0.00000       0.00000       0.00000  
       1         1         1      2001    recall           pt00017      52.02028       0.00096       0.36569       0.13657       0.28608       0.13657       0.00000       0.83678       0.00000       0.99112       0.00000       0.00000       0.00000       0.00000       0.00000       0.00000       0.00000       0.00000  
       2         2         1      2001    recall           pt00017      52.02028       0.00096       0.36569       0.13657       0.28608       0.13657       0.00000       0.83678       0.00000       0.99112       0.00000       0.00000       0.00000       0.00000       0.00000       0.00000       0.00000       0.00000  
       3         3         1      2001    recall           pt00017      52.02028       0.00096       0.36569       0.13657       0.28608       0.13657       0.00000       0.83678       0.00000       0.99112       0.00000       0.00000       0.00000       0.00000       0.00000       0.00000       0.00000       0.00000  
       4         4         1      2001    recall           pt00017      52.02028       0.00096       0.36569       0.13657       0.28608       0.13657       0.00000       0.83678       0.00000       0.99112       0.00000       0.00000       0.00000       0.00000       0.00000       0.00000       0.00000       0.00000  
       5         5         1      2001    recall           pt00017      52.02028       0.00096       0.36569       0.13657       0.28608       0.13657       0.00000       0.83678       0.00000       0.99112       0.00000       0.00000       0.00000       0.00000       0.00000       0.00000       0.00000       0.00000  
       6         6         1      2001    recall           pt00017      52.02028       0.00096       0.36569       0.13657       0.28608       0.13657       0.00000       0.83678       0.00000       0.99112       0.00000       0.00000       0.00000       0.00000       0.00000       0.00000       0.00000       0.00000  
       7         7         1      2001    recall           pt00017      52.02028       0.00096       0.36569       0.13657       0.28608       0.13657       0.00000       0.83678       0.00000       0.99112       0.00000       0.00000       0.00000       0.00000       0.00000       0.00000       0.00000       0.00000  
       8         8         1      2001    recall           pt00017      52.02028       0.00096       0.36569       0.13657       0.28608       0.13657       0.00000       0.83678       0.00000       0.99112       0.00000       0.00000       0.00000       0.00000       0.00000       0.00000       0.00000       0.00000  
       9         9         1      2001    recall           pt00017      52.02028       0.00096       0.36569       0.13657       0.28608       0.13657       0.00000       0.83678       0.00000       0.99112       0.00000       0.00000       0.00000       0.00000       0.00000       0.00000       0.00000       0.00000  
      10        10         1      2001    recall           pt00017      52.02028       0.00096       0.36569       0.13657       0.28608       0.13657       0.00000       0.83678       0.00000       0.99112       0.00000       0.00000       0.00000       0.00000       0.00000       0.00000       0.00000       0.00000  
      11        11         1      2001    recall           pt00017      52.02028       0.00096       0.36569       0.13657       0.28608       0.13657       0.00000       0.83678       0.00000       0.99112       0.00000       0.00000       0.00000       0.00000       0.00000       0.00000       0.00000       0.00000  
      12        12         1      2001    recall           pt00017      52.02028       0.00096       0.36569       0.13657       0.28608       0.13657       0.00000       0.83678       0.00000       0.99112       0.00000       0.00000       0.00000       0.00000       0.00000       0.00000       0.00000       0.00000  
       1         1         1      2002    recall           pt00017      30.11700       0.00047       0.22292       0.09199       0.22522       0.09199       0.00000       0.53422       0.00000       0.54211       0.00000       0.00000       0.00000       0.00000       0.00000       0.00000       0.00000       0.00000  
       2         2         1      2002    recall           pt00017      30.11700       0.00047       0.22292       0.09199       0.22522       0.09199       0.00000       0.53422       0.00000       0.54211       0.00000       0.00000       0.00000       0.00000       0.00000       0.00000       0.00000       0.00000  
       3         3         1      2002    recall           pt00017      30.11700       0.00047       0.22292       0.09199       0.22522       0.09199       0.00000       0.53422       0.00000       0.54211       0.00000       0.00000       0.00000       0.00000       0.00000       0.00000       0.00000       0.00000  
       4         4         1      2002    recall           pt00017      30.11700       0.00047       0.22292       0.09199       0.22522       0.09199       0.00000       0.53422       0.00000       0.54211       0.00000       0.00000       0.00000       0.00000       0.00000       0.00000       0.00000       0.00000  
       5         5         1      2002    recall           pt00017      30.11700       0.00047       0.22292       0.09199       0.22522       0.09199       0.00000       0.53422       0.00000       0.54211       0.00000       0.00000       0.00000       0.00000       0.00000       0.00000       0.00000       0.00000  
       6         6         1      2002    recall           pt00017      30.11700       0.00047       0.22292       0.09199       0.22522       0.09199       0.00000       0.53422       0.00000       0.54211       0.00000       0.00000       0.00000       0.00000       0.00000       0.00000       0.00000       0.00000  
       7         7         1      2002    recall           pt00017      30.11700       0.00047       0.22292       0.09199       0.22522       0.09199       0.00000       0.53422       0.00000       0.54211       0.00000       0.00000       0.00000       0.00000       0.00000       0.00000       0.00000       0.00000  
       8         8         1      2002    recall           pt00017      30.11700       0.00047       0.22292       0.09199       0.22522       0.09199       0.00000       0.53422       0.00000       0.54211       0.00000       0.00000       0.00000       0.00000       0.00000       0.00000       0.00000       0.00000  
       9         9         1      2002    recall           pt00017      30.11700       0.00047       0.22292       0.09199       0.22522       0.09199       0.00000       0.53422       0.00000       0.54211       0.00000       0.00000       0.00000       0.00000       0.00000       0.00000       0.00000       0.00000  
      10        10         1      2002    recall           pt00017      30.11700       0.00047       0.22292       0.09199       0.22522       0.09199       0.00000       0.53422       0.00000       0.54211       0.00000       0.00000       0.00000       0.00000       0.00000       0.00000       0.00000       0.00000  
      11        11         1      2002    recall           pt00017      30.11700       0.00047       0.22292       0.09199       0.22522       0.09199       0.00000       0.53422       0.00000       0.54211       0.00000       0.00000       0.00000       0.00000       0.00000       0.00000       0.00000       0.00000  
      12        12         1      2002    recall           pt00017      30.11700       0.00047       0.22292       0.09199       0.22522       0.09199       0.00000       0.53422       0.00000       0.54211       0.00000       0.00000       0.00000       0.00000       0.00000       0.00000       0.00000       0.00000  
       1         1         1      2003    recall           pt00017      32.85491       0.00069       0.35623       0.15442       0.27179       0.15442       0.00000       0.84716       0.00000       0.87887       0.00000       0.00000       0.00000       0.00000       0.00000       0.00000       0.00000       0.00000  
       2         2         1      2003    recall           pt00017      32.85491       0.00069       0.35623       0.15442       0.27179       0.15442       0.00000       0.84716       0.00000       0.87887       0.00000       0.00000       0.00000       0.00000       0.00000       0.00000       0.00000       0.00000  
       3         3         1      2003    recall           pt00017      32.85491       0.00069       0.35623       0.15442       0.27179       0.15442       0.00000       0.84716       0.00000       0.87887       0.00000       0.00000       0.00000       0.00000       0.00000       0.00000       0.00000       0.00000  
       4         4         1      2003    recall           pt00017      32.85491       0.00069       0.35623       0.15442       0.27179       0.15442       0.00000       0.84716       0.00000       0.87887       0.00000       0.00000       0.00000       0.00000       0.00000       0.00000       0.00000       0.00000  
       5         5         1      2003    recall           pt00017      32.85491       0.00069       0.35623       0.15442       0.27179       0.15442       0.00000       0.84716       0.00000       0.87887       0.00000       0.00000       0.00000       0.00000       0.00000       0.00000       0.00000       0.00000  
       6         6         1      2003    recall           pt00017      32.85491       0.00069       0.35623       0.15442       0.27179       0.15442       0.00000       0.84716       0.00000       0.87887       0.00000       0.00000       0.00000       0.00000       0.00000       0.00000       0.00000       0.00000  
       7         7         1      2003    recall           pt00017      32.85491       0.00069       0.35623       0.15442       0.27179       0.15442       0.00000       0.84716       0.00000       0.87887       0.00000       0.00000       0.00000       0.00000       0.00000       0.00000       0.00000       0.00000  
       8         8         1      2003    recall           pt00017      32.85491       0.00069       0.35623       0.15442       0.27179       0.15442       0.00000       0.84716       0.00000       0.87887       0.00000       0.00000       0.00000       0.00000       0.00000       0.00000       0.00000       0.00000  
       9         9         1      2003    recall           pt00017      32.85491       0.00069       0.35623       0.15442       0.27179       0.15442       0.00000       0.84716       0.00000       0.87887       0.00000       0.00000       0.00000       0.00000       0.00000       0.00000       0.00000       0.00000  
      10        10         1      2003    recall           pt00017      32.85491       0.00069       0.35623       0.15442       0.27179       0.15442       0.00000       0.84716       0.00000       0.87887       0.00000       0.00000       0.00000       0.00000       0.00000       0.00000       0.00000       0.00000  
      11        11         1      2003    recall           pt00017      32.85491       0.00069       0.35623       0.15442       0.27179       0.15442       0.00000       0.84716       0.00000       0.87887       0.00000       0.00000       0.00000       0.00000       0.00000       0.00000       0.00000       0.00000  
      12        12         1      2003    recall           pt00017      32.85491       0.00069       0.35623       0.15442       0.27179       0.15442       0.00000       0.84716       0.00000       0.87887       0.00000       0.00000       0.00000       0.00000       0.00000       0.00000       0.00000       0.00000  
       1         1         1      2004    recall           pt00017      16.42746       0.00046       0.10394       0.03285       0.06485       0.08049       0.00000       0.40165       0.00370       0.36962       0.00000       0.00000       0.00000       0.00000       0.00000       0.00000       0.00000       0.00000  
       2         2         1      2004    recall           pt00017      16.42746       0.00046       0.10394       0.03285       0.06485       0.08049       0.00000       0.40165       0.00370       0.36962       0.00000       0.00000       0.00000       0.00000       0.00000       0.00000       0.00000       0.00000  
       3         3         1      2004    recall           pt00017      16.42746       0.00046       0.10394       0.03285       0.06485       0.08049       0.00000       0.40165       0.00370       0.36962       0.00000       0.00000       0.00000       0.00000       0.00000       0.00000       0.00000       0.00000  
       4         4         1      2004    recall           pt00017      16.42746       0.00046       0.10394       0.03285       0.06485       0.08049       0.00000       0.40165       0.00370       0.36962       0.00000       0.00000       0.00000       0.00000       0.00000       0.00000       0.00000       0.00000  
       5         5         1      2004    recall           pt00017      16.42746       0.00046       0.10394       0.03285       0.06485       0.08049       0.00000       0.40165       0.00370       0.36962       0.00000       0.00000       0.00000       0.00000       0.00000       0.00000       0.00000       0.00000  
       6         6         1      2004    recall           pt00017      16.42746       0.00046       0.10394       0.03285       0.06485       0.08049       0.00000       0.40165       0.00370       0.36962       0.00000       0.00000       0.00000       0.00000       0.00000       0.00000       0.00000       0.00000  
       7         7         1      2004    recall           pt00017      16.42746       0.00046       0.10394       0.03285       0.06485       0.08049       0.00000       0.40165       0.00370       0.36962       0.00000       0.00000       0.00000       0.00000       0.00000       0.00000       0.00000       0.00000  
       8         8         1      2004    recall           pt00017      16.42746       0.00046       0.10394       0.03285       0.06485       0.08049       0.00000       0.40165       0.00370       0.36962       0.00000       0.00000       0.00000       0.00000       0.00000       0.00000       0.00000       0.00000  
       9         9         1      2004    recall           pt00017      16.42746       0.00046       0.10394       0.03285       0.06485       0.08049       0.00000       0.40165       0.00370       0.36962       0.00000       0.00000       0.00000       0.00000       0.00000       0.00000       0.00000       0.00000  
      10        10         1      2004    recall           pt00017      16.42746       0.00046       0.10394       0.03285       0.06485       0.08049       0.00000       0.40165       0.00370       0.36962       0.00000       0.00000       0.00000       0.00000       0.00000       0.00000       0.00000       0.00000  
      11        11         1      2004    recall           pt00017      16.42746       0.00046       0.10394       0.03285       0.06485       0.08049       0.00000       0.40165       0.00370       0.36962       0.00000       0.00000       0.00000       0.00000       0.00000       0.00000       0.00000       0.00000  
      12        12         1      2004    recall           pt00017      16.42746       0.00046       0.10394       0.03285       0.06485       0.08049       0.00000       0.40165       0.00370       0.36962       0.00000       0.00000       0.00000       0.00000       0.00000       0.00000       0.00000       0.00000  
       1         1         1      2005    recall           pt00017      16.42746       0.00043       0.24703       0.04025       0.05359       0.08953       0.00000       0.29159       0.01314       0.38605       0.00000       0.00000       0.00000       0.00000       0.00000       0.00000       0.00000       0.00000  
       2         2         1      2005    recall           pt00017      16.42746       0.00043       0.24703       0.04025       0.05359       0.08953       0.00000       0.29159       0.01314       0.38605       0.00000       0.00000       0.00000       0.00000       0.00000       0.00000       0.00000       0.00000  
       3         3         1      2005    recall           pt00017      16.42746       0.00043       0.24703       0.04025       0.05359       0.08953       0.00000       0.29159       0.01314       0.38605       0.00000       0.00000       0.00000       0.00000       0.00000       0.00000       0.00000       0.00000  
       4         4         1      2005    recall           pt00017      16.42746       0.00043       0.24703       0.04025       0.05359       0.08953       0.00000       0.29159       0.01314       0.38605       0.00000       0.00000       0.00000       0.00000       0.00000       0.00000       0.00000       0.00000  
       5         5         1      2005    recall           pt00017      16.42746       0.00043       0.24703       0.04025       0.05359       0.08953       0.00000       0.29159       0.01314       0.38605       0.00000       0.00000       0.00000       0.00000       0.00000       0.00000       0.00000       0.00000  
       6         6         1      2005    recall           pt00017      16.42746       0.00043       0.24703       0.04025       0.05359       0.08953       0.00000       0.29159       0.01314       0.38605       0.00000       0.00000       0.00000       0.00000       0.00000       0.00000       0.00000       0.00000  
       7         7         1      2005    recall           pt00017      16.42746       0.00043       0.24703       0.04025       0.05359       0.08953       0.00000       0.29159       0.01314       0.38605       0.00000       0.00000       0.00000       0.00000       0.00000       0.00000       0.00000       0.00000  
       8         8         1      2005    recall           pt00017      16.42746       0.00043       0.24703       0.04025       0.05359       0.08953       0.00000       0.29159       0.01314       0.38605       0.00000       0.00000       0.00000       0.00000       0.00000       0.00000       0.00000       0.00000  
       9         9         1      2005    recall           pt00017      16.42746       0.00043       0.24703       0.04025       0.05359       0.08953       0.00000       0.29159       0.01314       0.38605       0.00000       0.00000       0.00000       0.00000       0.00000       0.00000       0.00000       0.00000  
      10        10         1      2005    recall           pt00017      16.42746       0.00043       0.24703       0.04025       0.05359       0.08953       0.00000       0.29159       0.01314       0.38605       0.00000       0.00000       0.00000       0.00000       0.00000       0.00000       0.00000       0.00000  
      11        11         1      2005    recall           pt00017      16.42746       0.00043       0.24703       0.04025       0.05359       0.08953       0.00000       0.29159       0.01314       0.38605       0.00000       0.00000       0.00000       0.00000       0.00000       0.00000       0.00000       0.00000  
      12        12         1      2005    recall           pt00017      16.42746       0.00043       0.24703       0.04025       0.05359       0.08953       0.00000       0.29159       0.01314       0.38605       0.00000       0.00000       0.00000       0.00000       0.00000       0.00000       0.00000       0.00000  
       1         1         1      2006    recall           pt00017      19.16536       0.00065       0.07238       0.02409       0.01812       0.16564       0.00000       0.76388       0.00723       0.55032       0.00000       0.00000       0.00000       0.00000       0.00000       0.00000       0.00000       0.00000  
       2         2         1      2006    recall           pt00017      19.16536       0.00065       0.07238       0.02409       0.01812       0.16564       0.00000       0.76388       0.00723       0.55032       0.00000       0.00000       0.00000       0.00000       0.00000       0.00000       0.00000       0.00000  
       3         3         1      2006    recall           pt00017      19.16536       0.00065       0.07238       0.02409       0.01812       0.16564       0.00000       0.76388       0.00723       0.55032       0.00000       0.00000       0.00000       0.00000       0.00000       0.00000       0.00000       0.00000  
       4         4         1      2006    recall           pt00017      19.16536       0.00065       0.07238       0.02409       0.01812       0.16564       0.00000       0.76388       0.00723       0.55032       0.00000       0.00000       0.00000       0.00000       0.00000       0.00000       0.00000       0.00000  
       5         5         1      2006    recall           pt00017      19.16536       0.00065       0.07238       0.02409       0.01812       0.16564       0.00000       0.76388       0.00723       0.55032       0.00000       0.00000       0.00000       0.00000       0.00000       0.00000       0.00000       0.00000  
       6         6         1      2006    recall           pt00017      19.16536       0.00065       0.07238       0.02409       0.01812       0.16564       0.00000       0.76388       0.00723       0.55032       0.00000       0.00000       0.00000       0.00000       0.00000       0.00000       0.00000       0.00000  
       7         7         1      2006    recall           pt00017      19.16536       0.00065       0.07238       0.02409       0.01812       0.16564       0.00000       0.76388       0.00723       0.55032       0.00000       0.00000       0.00000       0.00000       0.00000       0.00000       0.00000       0.00000  
       8         8         1      2006    recall           pt00017      19.16536       0.00065       0.07238       0.02409       0.01812       0.16564       0.00000       0.76388       0.00723       0.55032       0.00000       0.00000       0.00000       0.00000       0.00000       0.00000       0.00000       0.00000  
       9         9         1      2006    recall           pt00017      19.16536       0.00065       0.07238       0.02409       0.01812       0.16564       0.00000       0.76388       0.00723       0.55032       0.00000       0.00000       0.00000       0.00000       0.00000       0.00000       0.00000       0.00000  
      10        10         1      2006    recall           pt00017      19.16536       0.00065       0.07238       0.02409       0.01812       0.16564       0.00000       0.76388       0.00723       0.55032       0.00000       0.00000       0.00000       0.00000       0.00000       0.00000       0.00000       0.00000  
      11        11         1      2006    recall           pt00017      19.16536       0.00065       0.07238       0.02409       0.01812       0.16564       0.00000       0.76388       0.00723       0.55032       0.00000       0.00000       0.00000       0.00000       0.00000       0.00000       0.00000       0.00000  
      12        12         1      2006    recall           pt00017      19.16536       0.00065       0.07238       0.02409       0.01812       0.16564       0.00000       0.76388       0.00723       0.55032       0.00000       0.00000       0.00000       0.00000       0.00000       0.00000       0.00000       0.00000  
       1         1         1      2007    recall           pt00017      19.16536       0.00041       0.22585       0.05429       0.09591       0.09082       0.00000       0.35045       0.01747       0.44080       0.00000       0.00000       0.00000       0.00000       0.00000       0.00000       0.00000       0.00000  
       2         2         1      2007    recall           pt00017      19.16536       0.00041       0.22585       0.05429       0.09591       0.09082       0.00000       0.35045       0.01747       0.44080       0.00000       0.00000       0.00000       0.00000       0.00000       0.00000       0.00000       0.00000  
       3         3         1      2007    recall           pt00017      19.16536       0.00041       0.22585       0.05429       0.09591       0.09082       0.00000       0.35045       0.01747       0.44080       0.00000       0.00000       0.00000       0.00000       0.00000       0.00000       0.00000       0.00000  
       4         4         1      2007    recall           pt00017      19.16536       0.00041       0.22585       0.05429       0.09591       0.09082       0.00000       0.35045       0.01747       0.44080       0.00000       0.00000       0.00000       0.00000       0.00000       0.00000       0.00000       0.00000  
       5         5         1      2007    recall           pt00017      19.16536       0.00041       0.22585       0.05429       0.09591       0.09082       0.00000       0.35045       0.01747       0.44080       0.00000       0.00000       0.00000       0.00000       0.00000       0.00000       0.00000       0.00000  
       6         6         1      2007    recall           pt00017      19.16536       0.00041       0.22585       0.05429       0.09591       0.09082       0.00000       0.35045       0.01747       0.44080       0.00000       0.00000       0.00000       0.00000       0.00000       0.00000       0.00000       0.00000  
       7         7         1      2007    recall           pt00017      19.16536       0.00041       0.22585       0.05429       0.09591       0.09082       0.00000       0.35045       0.01747       0.44080       0.00000       0.00000       0.00000       0.00000       0.00000       0.00000       0.00000       0.00000  
       8         8         1      2007    recall           pt00017      19.16536       0.00041       0.22585       0.05429       0.09591       0.09082       0.00000       0.35045       0.01747       0.44080       0.00000       0.00000       0.00000       0.00000       0.00000       0.00000       0.00000       0.00000  
       9         9         1      2007    recall           pt00017      19.16536       0.00041       0.22585       0.05429       0.09591       0.09082       0.00000       0.35045       0.01747       0.44080       0.00000       0.00000       0.00000       0.00000       0.00000       0.00000       0.00000       0.00000  
      10        10         1      2007    recall           pt00017      19.16536       0.00041       0.22585       0.05429       0.09591       0.09082       0.00000       0.35045       0.01747       0.44080       0.00000       0.00000       0.00000       0.00000       0.00000       0.00000       0.00000       0.00000  
      11        11         1      2007    recall           pt00017      19.16536       0.00041       0.22585       0.05429       0.09591       0.09082       0.00000       0.35045       0.01747       0.44080       0.00000       0.00000       0.00000       0.00000       0.00000       0.00000       0.00000       0.00000  
      12        12         1      2007    recall           pt00017      19.16536       0.00041       0.22585       0.05429       0.09591       0.09082       0.00000       0.35045       0.01747       0.44080       0.00000       0.00000       0.00000       0.00000       0.00000       0.00000       0.00000       0.00000  
       1         1         1      2008    recall           pt00017      19.16536       0.00042       0.28756       0.09364       0.03058       0.07666       0.00000       0.51746       0.01233       0.54484       0.00000       0.00000       0.00000       0.00000       0.00000       0.00000       0.00000       0.00000  
       2         2         1      2008    recall           pt00017      19.16536       0.00042       0.28756       0.09364       0.03058       0.07666       0.00000       0.51746       0.01233       0.54484       0.00000       0.00000       0.00000       0.00000       0.00000       0.00000       0.00000       0.00000  
       3         3         1      2008    recall           pt00017      19.16536       0.00042       0.28756       0.09364       0.03058       0.07666       0.00000       0.51746       0.01233       0.54484       0.00000       0.00000       0.00000       0.00000       0.00000       0.00000       0.00000       0.00000  
       4         4         1      2008    recall           pt00017      19.16536       0.00042       0.28756       0.09364       0.03058       0.07666       0.00000       0.51746       0.01233       0.54484       0.00000       0.00000       0.00000       0.00000       0.00000       0.00000       0.00000       0.00000  
       5         5         1      2008    recall           pt00017      19.16536       0.00042       0.28756       0.09364       0.03058       0.07666       0.00000       0.51746       0.01233       0.54484       0.00000       0.00000       0.00000       0.00000       0.00000       0.00000       0.00000       0.00000  
       6         6         1      2008    recall           pt00017      19.16536       0.00042       0.28756       0.09364       0.03058       0.07666       0.00000       0.51746       0.01233       0.54484       0.00000       0.00000       0.00000       0.00000       0.00000       0.00000       0.00000       0.00000  
       7         7         1      2008    recall           pt00017      19.16536       0.00042       0.28756       0.09364       0.03058       0.07666       0.00000       0.51746       0.01233       0.54484       0.00000       0.00000       0.00000       0.00000       0.00000       0.00000       0.00000       0.00000  
       8         8         1      2008    recall           pt00017      19.16536       0.00042       0.28756       0.09364       0.03058       0.07666       0.00000       0.51746       0.01233       0.54484       0.00000       0.00000       0.00000       0.00000       0.00000       0.00000       0.00000       0.00000  
       9         9         1      2008    recall           pt00017      19.16536       0.00042       0.28756       0.09364       0.03058       0.07666       0.00000       0.51746       0.01233       0.54484       0.00000       0.00000       0.00000       0.00000       0.00000       0.00000       0.00000       0.00000  
      10        10         1      2008    recall           pt00017      19.16536       0.00042       0.28756       0.09364       0.03058       0.07666       0.00000       0.51746       0.01233       0.54484       0.00000       0.00000       0.00000       0.00000       0.00000       0.00000       0.00000       0.00000  
      11        11         1      2008    recall           pt00017      19.16536       0.00042       0.28756       0.09364       0.03058       0.07666       0.00000       0.51746       0.01233       0.54484       0.00000       0.00000       0.00000       0.00000       0.00000       0.00000       0.00000       0.00000  
      12        12         1      2008    recall           pt00017      19.16536       0.00042       0.28756       0.09364       0.03058       0.07666       0.00000       0.51746       0.01233       0.54484       0.00000       0.00000       0.00000       0.00000       0.00000       0.00000       0.00000       0.00000  
       1         1         1      2009    recall           pt00017      19.16536       0.00040       0.22637       0.09498       0.01366       0.05670       0.00000       0.49282       0.00611       0.47366       0.00000       0.00000       0.00000       0.00000       0.00000       0.00000       0.00000       0.00000  
       2         2         1      2009    recall           pt00017      19.16536       0.00040       0.22637       0.09498       0.01366       0.05670       0.00000       0.49282       0.00611       0.47366       0.00000       0.00000       0.00000       0.00000       0.00000       0.00000       0.00000       0.00000  
       3         3         1      2009    recall           pt00017      19.16536       0.00040       0.22637       0.09498       0.01366       0.05670       0.00000       0.49282       0.00611       0.47366       0.00000       0.00000       0.00000       0.00000       0.00000       0.00000       0.00000       0.00000  
       4         4         1      2009    recall           pt00017      19.16536       0.00040       0.22637       0.09498       0.01366       0.05670       0.00000       0.49282       0.00611       0.47366       0.00000       0.00000       0.00000       0.00000       0.00000       0.00000       0.00000       0.00000  
       5         5         1      2009    recall           pt00017      19.16536       0.00040       0.22637       0.09498       0.01366       0.05670       0.00000       0.49282       0.00611       0.47366       0.00000       0.00000       0.00000       0.00000       0.00000       0.00000       0.00000       0.00000  
       6         6         1      2009    recall           pt00017      19.16536       0.00040       0.22637       0.09498       0.01366       0.05670       0.00000       0.49282       0.00611       0.47366       0.00000       0.00000       0.00000       0.00000       0.00000       0.00000       0.00000       0.00000  
       7         7         1      2009    recall           pt00017      19.16536       0.00040       0.22637       0.09498       0.01366       0.05670       0.00000       0.49282       0.00611       0.47366       0.00000       0.00000       0.00000       0.00000       0.00000       0.00000       0.00000       0.00000  
       8         8         1      2009    recall           pt00017      19.16536       0.00040       0.22637       0.09498       0.01366       0.05670       0.00000       0.49282       0.00611       0.47366       0.00000       0.00000       0.00000       0.00000       0.00000       0.00000       0.00000       0.00000  
       9         9         1      2009    recall           pt00017      19.16536       0.00040       0.22637       0.09498       0.01366       0.05670       0.00000       0.49282       0.00611       0.47366       0.00000       0.00000       0.00000       0.00000       0.00000       0.00000       0.00000       0.00000  
      10        10         1      2009    recall           pt00017      19.16536       0.00040       0.22637       0.09498       0.01366       0.05670       0.00000       0.49282       0.00611       0.47366       0.00000       0.00000       0.00000       0.00000       0.00000       0.00000       0.00000       0.00000  
      11        11         1      2009    recall           pt00017      19.16536       0.00040       0.22637       0.09498       0.01366       0.05670       0.00000       0.49282       0.00611       0.47366       0.00000       0.00000       0.00000       0.00000       0.00000       0.00000       0.00000       0.00000  
      12        12         1      2009    recall           pt00017      19.16536       0.00040       0.22637       0.09498       0.01366       0.05670       0.00000       0.49282       0.00611       0.47366       0.00000       0.00000       0.00000       0.00000       0.00000       0.00000       0.00000       0.00000  
       1         1         1      2010    recall           pt00017      19.16536       0.00030       0.06086       0.03614       0.07647       0.06188       0.00000       0.41342       0.01287       0.31486       0.00000       0.00000       0.00000       0.00000       0.00000       0.00000       0.00000       0.00000  
       2         2         1      2010    recall           pt00017      19.16536       0.00030       0.06086       0.03614       0.07647       0.06188       0.00000       0.41342       0.01287       0.31486       0.00000       0.00000       0.00000       0.00000       0.00000       0.00000       0.00000       0.00000  
       3         3         1      2010    recall           pt00017      19.16536       0.00030       0.06086       0.03614       0.07647       0.06188       0.00000       0.41342       0.01287       0.31486       0.00000       0.00000       0.00000       0.00000       0.00000       0.00000       0.00000       0.00000  
       4         4         1      2010    recall           pt00017      19.16536       0.00030       0.06086       0.03614       0.07647       0.06188       0.00000       0.41342       0.01287       0.31486       0.00000       0.00000       0.00000       0.00000       0.00000       0.00000       0.00000       0.00000  
       5         5         1      2010    recall           pt00017      19.16536       0.00030       0.06086       0.03614       0.07647       0.06188       0.00000       0.41342       0.01287       0.31486       0.00000       0.00000       0.00000       0.00000       0.00000       0.00000       0.00000       0.00000  
       6         6         1      2010    recall           pt00017      19.16536       0.00030       0.06086       0.03614       0.07647       0.06188       0.00000       0.41342       0.01287       0.31486       0.00000       0.00000       0.00000       0.00000       0.00000       0.00000       0.00000       0.00000  
       7         7         1      2010    recall           pt00017      19.16536       0.00030       0.06086       0.03614       0.07647       0.06188       0.00000       0.41342       0.01287       0.31486       0.00000       0.00000       0.00000       0.00000       0.00000       0.00000       0.00000       0.00000  
       8         8         1      2010    recall           pt00017      19.16536       0.00030       0.06086       0.03614       0.07647       0.06188       0.00000       0.41342       0.01287       0.31486       0.00000       0.00000       0.00000       0.00000       0.00000       0.00000       0.00000       0.00000  
       9         9         1      2010    recall           pt00017      19.16536       0.00030       0.06086       0.03614       0.07647       0.06188       0.00000       0.41342       0.01287       0.31486       0.00000       0.00000       0.00000       0.00000       0.00000       0.00000       0.00000       0.00000  
      10        10         1      2010    recall           pt00017      19.16536       0.00030       0.06086       0.03614       0.07647       0.06188       0.00000       0.41342       0.01287       0.31486       0.00000       0.00000       0.00000       0.00000       0.00000       0.00000       0.00000       0.00000  
      11        11         1      2010    recall           pt00017      19.16536       0.00030       0.06086       0.03614       0.07647       0.06188       0.00000       0.41342       0.01287       0.31486       0.00000       0.00000       0.00000       0.00000       0.00000       0.00000       0.00000       0.00000  
      12        12         1      2010    recall           pt00017      19.16536       0.00030       0.06086       0.03614       0.07647       0.06188       0.00000       0.41342       0.01287       0.31486       0.00000       0.00000       0.00000       0.00000       0.00000       0.00000       0.00000       0.00000  
       1         1         1      2011    recall           pt00017      19.16536       0.00034       0.09888       0.05933       0.02105       0.08249       0.00000       0.59960       0.00344       0.45723       0.00000       0.00000       0.00000       0.00000       0.00000       0.00000       0.00000       0.00000  
       2         2         1      2011    recall           pt00017      19.16536       0.00034       0.09888       0.05933       0.02105       0.08249       0.00000       0.59960       0.00344       0.45723       0.00000       0.00000       0.00000       0.00000       0.00000       0.00000       0.00000       0.00000  
       3         3         1      2011    recall           pt00017      19.16536       0.00034       0.09888       0.05933       0.02105       0.08249       0.00000       0.59960       0.00344       0.45723       0.00000       0.00000       0.00000       0.00000       0.00000       0.00000       0.00000       0.00000  
       4         4         1      2011    recall           pt00017      19.16536       0.00034       0.09888       0.05933       0.02105       0.08249       0.00000       0.59960       0.00344       0.45723       0.00000       0.00000       0.00000       0.00000       0.00000       0.00000       0.00000       0.00000  
       5         5         1      2011    recall           pt00017      19.16536       0.00034       0.09888       0.05933       0.02105       0.08249       0.00000       0.59960       0.00344       0.45723       0.00000       0.00000       0.00000       0.00000       0.00000       0.00000       0.00000       0.00000  
       6         6         1      2011    recall           pt00017      19.16536       0.00034       0.09888       0.05933       0.02105       0.08249       0.00000       0.59960       0.00344       0.45723       0.00000       0.00000       0.00000       0.00000       0.00000       0.00000       0.00000       0.00000  
       7         7         1      2011    recall           pt00017      19.16536       0.00034       0.09888       0.05933       0.02105       0.08249       0.00000       0.59960       0.00344       0.45723       0.00000       0.00000       0.00000       0.00000       0.00000       0.00000       0.00000       0.00000  
       8         8         1      2011    recall           pt00017      19.16536       0.00034       0.09888       0.05933       0.02105       0.08249       0.00000       0.59960       0.00344       0.45723       0.00000       0.00000       0.00000       0.00000       0.00000       0.00000       0.00000       0.00000  
       9         9         1      2011    recall           pt00017      19.16536       0.00034       0.09888       0.05933       0.02105       0.08249       0.00000       0.59960       0.00344       0.45723       0.00000       0.00000       0.00000       0.00000       0.00000       0.00000       0.00000       0.00000  
      10        10         1      2011    recall           pt00017      19.16536       0.00034       0.09888       0.05933       0.02105       0.08249       0.00000       0.59960       0.00344       0.45723       0.00000       0.00000       0.00000       0.00000       0.00000       0.00000       0.00000       0.00000  
      11        11         1      2011    recall           pt00017      19.16536       0.00034       0.09888       0.05933       0.02105       0.08249       0.00000       0.59960       0.00344       0.45723       0.00000       0.00000       0.00000       0.00000       0.00000       0.00000       0.00000       0.00000  
      12        12         1      2011    recall           pt00017      19.16536       0.00034       0.09888       0.05933       0.02105       0.08249       0.00000       0.59960       0.00344       0.45723       0.00000       0.00000       0.00000       0.00000       0.00000       0.00000       0.00000       0.00000  
       1         1         1      2012    recall           pt00017      19.16536       0.00060       0.33387       0.13629       0.02453       0.07453       0.00000       0.59139       0.00273       0.60508       0.00000       0.00000       0.00000       0.00000       0.00000       0.00000       0.00000       0.00000  
       2         2         1      2012    recall           pt00017      19.16536       0.00060       0.33387       0.13629       0.02453       0.07453       0.00000       0.59139       0.00273       0.60508       0.00000       0.00000       0.00000       0.00000       0.00000       0.00000       0.00000       0.00000  
       3         3         1      2012    recall           pt00017      19.16536       0.00060       0.33387       0.13629       0.02453       0.07453       0.00000       0.59139       0.00273       0.60508       0.00000       0.00000       0.00000       0.00000       0.00000       0.00000       0.00000       0.00000  
       4         4         1      2012    recall           pt00017      19.16536       0.00060       0.33387       0.13629       0.02453       0.07453       0.00000       0.59139       0.00273       0.60508       0.00000       0.00000       0.00000       0.00000       0.00000       0.00000       0.00000       0.00000  
       5         5         1      2012    recall           pt00017      19.16536       0.00060       0.33387       0.13629       0.02453       0.07453       0.00000       0.59139       0.00273       0.60508       0.00000       0.00000       0.00000       0.00000       0.00000       0.00000       0.00000       0.00000  
       6         6         1      2012    recall           pt00017      19.16536       0.00060       0.33387       0.13629       0.02453       0.07453       0.00000       0.59139       0.00273       0.60508       0.00000       0.00000       0.00000       0.00000       0.00000       0.00000       0.00000       0.00000  
       7         7         1      2012    recall           pt00017      19.16536       0.00060       0.33387       0.13629       0.02453       0.07453       0.00000       0.59139       0.00273       0.60508       0.00000       0.00000       0.00000       0.00000       0.00000       0.00000       0.00000       0.00000  
       8         8         1      2012    recall           pt00017      19.16536       0.00060       0.33387       0.13629       0.02453       0.07453       0.00000       0.59139       0.00273       0.60508       0.00000       0.00000       0.00000       0.00000       0.00000       0.00000       0.00000       0.00000  
       9         9         1      2012    recall           pt00017      19.16536       0.00060       0.33387       0.13629       0.02453       0.07453       0.00000       0.59139       0.00273       0.60508       0.00000       0.00000       0.00000       0.00000       0.00000       0.00000       0.00000       0.00000  
      10        10         1      2012    recall           pt00017      19.16536       0.00060       0.33387       0.13629       0.02453       0.07453       0.00000       0.59139       0.00273       0.60508       0.00000       0.00000       0.00000       0.00000       0.00000       0.00000       0.00000       0.00000  
      11        11         1      2012    recall           pt00017      19.16536       0.00060       0.33387       0.13629       0.02453       0.07453       0.00000       0.59139       0.00273       0.60508       0.00000       0.00000       0.00000       0.00000       0.00000       0.00000       0.00000       0.00000  
      12        12         1      2012    recall           pt00017      19.16536       0.00060       0.33387       0.13629       0.02453       0.07453       0.00000       0.59139       0.00273       0.60508       0.00000       0.00000       0.00000       0.00000       0.00000       0.00000       0.00000       0.00000  
       1         1         1      2013    recall           pt00017      24.64118       0.00054       0.00000       0.00000       0.05873       0.09596       0.00000       0.73376       0.00430       0.64615       0.00000       0.00000       0.00000       0.00000       0.00000       0.00000       0.00000       0.00000  
       2         2         1      2013    recall           pt00017      24.64118       0.00054       0.00000       0.00000       0.05873       0.09596       0.00000       0.73376       0.00430       0.64615       0.00000       0.00000       0.00000       0.00000       0.00000       0.00000       0.00000       0.00000  
       3         3         1      2013    recall           pt00017      24.64118       0.00054       0.00000       0.00000       0.05873       0.09596       0.00000       0.73376       0.00430       0.64615       0.00000       0.00000       0.00000       0.00000       0.00000       0.00000       0.00000       0.00000  
       4         4         1      2013    recall           pt00017      24.64118       0.00054       0.00000       0.00000       0.05873       0.09596       0.00000       0.73376       0.00430       0.64615       0.00000       0.00000       0.00000       0.00000       0.00000       0.00000       0.00000       0.00000  
       5         5         1      2013    recall           pt00017      24.64118       0.00054       0.00000       0.00000       0.05873       0.09596       0.00000       0.73376       0.00430       0.64615       0.00000       0.00000       0.00000       0.00000       0.00000       0.00000       0.00000       0.00000  
       6         6         1      2013    recall           pt00017      24.64118       0.00054       0.00000       0.00000       0.05873       0.09596       0.00000       0.73376       0.00430       0.64615       0.00000       0.00000       0.00000       0.00000       0.00000       0.00000       0.00000       0.00000  
       7         7         1      2013    recall           pt00017      24.64118       0.00054       0.00000       0.00000       0.05873       0.09596       0.00000       0.73376       0.00430       0.64615       0.00000       0.00000       0.00000       0.00000       0.00000       0.00000       0.00000       0.00000  
       8         8         1      2013    recall           pt00017      24.64118       0.00054       0.00000       0.00000       0.05873       0.09596       0.00000       0.73376       0.00430       0.64615       0.00000       0.00000       0.00000       0.00000       0.00000       0.00000       0.00000       0.00000  
       9         9         1      2013    recall           pt00017      24.64118       0.00054       0.00000       0.00000       0.05873       0.09596       0.00000       0.73376       0.00430       0.64615       0.00000       0.00000       0.00000       0.00000       0.00000       0.00000       0.00000       0.00000  
      10        10         1      2013    recall           pt00017      24.64118       0.00054       0.00000       0.00000       0.05873       0.09596       0.00000       0.73376       0.00430       0.64615       0.00000       0.00000       0.00000       0.00000       0.00000       0.00000       0.00000       0.00000  
      11        11         1      2013    recall           pt00017      24.64118       0.00054       0.00000       0.00000       0.05873       0.09596       0.00000       0.73376       0.00430       0.64615       0.00000       0.00000       0.00000       0.00000       0.00000       0.00000       0.00000       0.00000  
      12        12         1      2013    recall           pt00017      24.64118       0.00054       0.00000       0.00000       0.05873       0.09596       0.00000       0.73376       0.00430       0.64615       0.00000       0.00000       0.00000       0.00000       0.00000       0.00000       0.00000       0.00000  
       1         1         1      2014    recall           pt00017      24.91497       0.00095       0.00000       0.00000       0.02147       0.11950       0.00000       0.96292       0.00927       0.69029       0.00000       0.00000       0.00000       0.00000       0.00000       0.00000       0.00000       0.00000  
       2         2         1      2014    recall           pt00017      24.91497       0.00095       0.00000       0.00000       0.02147       0.11950       0.00000       0.96292       0.00927       0.69029       0.00000       0.00000       0.00000       0.00000       0.00000       0.00000       0.00000       0.00000  
       3         3         1      2014    recall           pt00017      24.91497       0.00095       0.00000       0.00000       0.02147       0.11950       0.00000       0.96292       0.00927       0.69029       0.00000       0.00000       0.00000       0.00000       0.00000       0.00000       0.00000       0.00000  
       4         4         1      2014    recall           pt00017      24.91497       0.00095       0.00000       0.00000       0.02147       0.11950       0.00000       0.96292       0.00927       0.69029       0.00000       0.00000       0.00000       0.00000       0.00000       0.00000       0.00000       0.00000  
       5         5         1      2014    recall           pt00017      24.91497       0.00095       0.00000       0.00000       0.02147       0.11950       0.00000       0.96292       0.00927       0.69029       0.00000       0.00000       0.00000       0.00000       0.00000       0.00000       0.00000       0.00000  
       6         6         1      2014    recall           pt00017      24.91497       0.00095       0.00000       0.00000       0.02147       0.11950       0.00000       0.96292       0.00927       0.69029       0.00000       0.00000       0.00000       0.00000       0.00000       0.00000       0.00000       0.00000  
       7         7         1      2014    recall           pt00017      24.91497       0.00095       0.00000       0.00000       0.02147       0.11950       0.00000       0.96292       0.00927       0.69029       0.00000       0.00000       0.00000       0.00000       0.00000       0.00000       0.00000       0.00000  
       8         8         1      2014    recall           pt00017      24.91497       0.00095       0.00000       0.00000       0.02147       0.11950       0.00000       0.96292       0.00927       0.69029       0.00000       0.00000       0.00000       0.00000       0.00000       0.00000       0.00000       0.00000  
[...]
      11        11         1      2014    recall           pt00017      24.91497       0.00095       0.00000       0.00000       0.02147       0.11950       0.00000       0.96292       0.00927       0.69029       0.00000       0.00000       0.00000       0.00000       0.00000       0.00000       0.00000       0.00000  
      12        12         1      2014    recall           pt00017      24.91497       0.00095       0.00000       0.00000       0.02147       0.11950       0.00000       0.96292       0.00927       0.69029       0.00000       0.00000       0.00000       0.00000       0.00000       0.00000       0.00000       0.00000  
       1         1         1      2015    recall           pt00017      25.73635       0.00086       0.00000       0.00000       0.01938       0.14157       0.00000       1.03946       0.00359       0.70769       0.00000       0.00000       0.00000       0.00000       0.00000       0.00000       0.00000       0.00000  
       2         2         1      2015    recall           pt00017      25.73635       0.00086       0.00000       0.00000       0.01938       0.14157       0.00000       1.03946       0.00359       0.70769       0.00000       0.00000       0.00000       0.00000       0.00000       0.00000       0.00000       0.00000  
       3         3         1      2015    recall           pt00017      25.73635       0.00086       0.00000       0.00000       0.01938       0.14157       0.00000       1.03946       0.00359       0.70769       0.00000       0.00000       0.00000       0.00000       0.00000       0.00000       0.00000       0.00000  
       4         4         1      2015    recall           pt00017      25.73635       0.00086       0.00000       0.00000       0.01938       0.14157       0.00000       1.03946       0.00359       0.70769       0.00000       0.00000       0.00000       0.00000       0.00000       0.00000       0.00000       0.00000  
       5         5         1      2015    recall           pt00017      25.73635       0.00086       0.00000       0.00000       0.01938       0.14157       0.00000       1.03946       0.00359       0.70769       0.00000       0.00000       0.00000       0.00000       0.00000       0.00000       0.00000       0.00000  
       6         6         1      2015    recall           pt00017      25.73635       0.00086       0.00000       0.00000       0.01938       0.14157       0.00000       1.03946       0.00359       0.70769       0.00000       0.00000       0.00000       0.00000       0.00000       0.00000       0.00000       0.00000  
       7         7         1      2015    recall           pt00017      25.73635       0.00086       0.00000       0.00000       0.01938       0.14157       0.00000       1.03946       0.00359       0.70769       0.00000       0.00000       0.00000       0.00000       0.00000       0.00000       0.00000       0.00000  
       8         8         1      2015    recall           pt00017      25.73635       0.00086       0.00000       0.00000       0.01938       0.14157       0.00000       1.03946       0.00359       0.70769       0.00000       0.00000       0.00000       0.00000       0.00000       0.00000       0.00000       0.00000  
       9         9         1      2015    recall           pt00017      25.73635       0.00086       0.00000       0.00000       0.01938       0.14157       0.00000       1.03946       0.00359       0.70769       0.00000       0.00000       0.00000       0.00000       0.00000       0.00000       0.00000       0.00000  
      10        10         1      2015    recall           pt00017      25.73635       0.00086       0.00000       0.00000       0.01938       0.14157       0.00000       1.03946       0.00359       0.70769       0.00000       0.00000       0.00000       0.00000       0.00000       0.00000       0.00000       0.00000  
      11        11         1      2015    recall           pt00017      25.73635       0.00086       0.00000       0.00000       0.01938       0.14157       0.00000       1.03946       0.00359       0.70769       0.00000       0.00000       0.00000       0.00000       0.00000       0.00000       0.00000       0.00000  
      12        12         1      2015    recall           pt00017      25.73635       0.00086       0.00000       0.00000       0.01938       0.14157       0.00000       1.03946       0.00359       0.70769       0.00000       0.00000       0.00000       0.00000       0.00000       0.00000       0.00000       0.00000  
       1         1         1      2016    recall           pt00017      26.83151       0.00084       0.00000       0.00000       0.03160       0.10092       0.00000       0.82995       0.01001       0.69346       0.00000       0.00000       0.00000       0.00000       0.00000       0.00000       0.00000       0.00000  
       2         2         1      2016    recall           pt00017      26.83151       0.00084       0.00000       0.00000       0.03160       0.10092       0.00000       0.82995       0.01001       0.69346       0.00000       0.00000       0.00000       0.00000       0.00000       0.00000       0.00000       0.00000  
       3         3         1      2016    recall           pt00017      26.83151       0.00084       0.00000       0.00000       0.03160       0.10092       0.00000       0.82995       0.01001       0.69346       0.00000       0.00000       0.00000       0.00000       0.00000       0.00000       0.00000       0.00000  
       4         4         1      2016    recall           pt00017      26.83151       0.00084       0.00000       0.00000       0.03160       0.10092       0.00000       0.82995       0.01001       0.69346       0.00000       0.00000       0.00000       0.00000       0.00000       0.00000       0.00000       0.00000  
       5         5         1      2016    recall           pt00017      26.83151       0.00084       0.00000       0.00000       0.03160       0.10092       0.00000       0.82995       0.01001       0.69346       0.00000       0.00000       0.00000       0.00000       0.00000       0.00000       0.00000       0.00000  
       6         6         1      2016    recall           pt00017      26.83151       0.00084       0.00000       0.00000       0.03160       0.10092       0.00000       0.82995       0.01001       0.69346       0.00000       0.00000       0.00000       0.00000       0.00000       0.00000       0.00000       0.00000  
       7         7         1      2016    recall           pt00017      26.83151       0.00084       0.00000       0.00000       0.03160       0.10092       0.00000       0.82995       0.01001       0.69346       0.00000       0.00000       0.00000       0.00000       0.00000       0.00000       0.00000       0.00000  
       8         8         1      2016    recall           pt00017      26.83151       0.00084       0.00000       0.00000       0.03160       0.10092       0.00000       0.82995       0.01001       0.69346       0.00000       0.00000       0.00000       0.00000       0.00000       0.00000       0.00000       0.00000  
       9         9         1      2016    recall           pt00017      26.83151       0.00084       0.00000       0.00000       0.03160       0.10092       0.00000       0.82995       0.01001       0.69346       0.00000       0.00000       0.00000       0.00000       0.00000       0.00000       0.00000       0.00000  
      10        10         1      2016    recall           pt00017      26.83151       0.00084       0.00000       0.00000       0.03160       0.10092       0.00000       0.82995       0.01001       0.69346       0.00000       0.00000       0.00000       0.00000       0.00000       0.00000       0.00000       0.00000  
      11        11         1      2016    recall           pt00017      26.83151       0.00084       0.00000       0.00000       0.03160       0.10092       0.00000       0.82995       0.01001       0.69346       0.00000       0.00000       0.00000       0.00000       0.00000       0.00000       0.00000       0.00000  
      12        12         1      2016    recall           pt00017      26.83151       0.00084       0.00000       0.00000       0.03160       0.10092       0.00000       0.82995       0.01001       0.69346       0.00000       0.00000       0.00000       0.00000       0.00000       0.00000       0.00000       0.00000  
       1         1         1      2017    recall           pt00017      30.66458       0.00059       0.00192       0.00587       0.16415       0.04769       0.00000       0.26899       0.00885       0.43898       0.00000       0.00000       0.00000       0.00000       0.00000       0.00000       0.00000       0.00000  
       2         2         1      2017    recall           pt00017      30.66458       0.00059       0.00192       0.00587       0.16415       0.04769       0.00000       0.26899       0.00885       0.43898       0.00000       0.00000       0.00000       0.00000       0.00000       0.00000       0.00000       0.00000  
       3         3         1      2017    recall           pt00017      30.66458       0.00059       0.00192       0.00587       0.16415       0.04769       0.00000       0.26899       0.00885       0.43898       0.00000       0.00000       0.00000       0.00000       0.00000       0.00000       0.00000       0.00000  
       4         4         1      2017    recall           pt00017      30.66458       0.00059       0.00192       0.00587       0.16415       0.04769       0.00000       0.26899       0.00885       0.43898       0.00000       0.00000       0.00000       0.00000       0.00000       0.00000       0.00000       0.00000  
       5         5         1      2017    recall           pt00017      30.66458       0.00059       0.00192       0.00587       0.16415       0.04769       0.00000       0.26899       0.00885       0.43898       0.00000       0.00000       0.00000       0.00000       0.00000       0.00000       0.00000       0.00000  
       6         6         1      2017    recall           pt00017      30.66458       0.00059       0.00192       0.00587       0.16415       0.04769       0.00000       0.26899       0.00885       0.43898       0.00000       0.00000       0.00000       0.00000       0.00000       0.00000       0.00000       0.00000  
       7         7         1      2017    recall           pt00017      30.66458       0.00059       0.00192       0.00587       0.16415       0.04769       0.00000       0.26899       0.00885       0.43898       0.00000       0.00000       0.00000       0.00000       0.00000       0.00000       0.00000       0.00000  
       8         8         1      2017    recall           pt00017      30.66458       0.00059       0.00192       0.00587       0.16415       0.04769       0.00000       0.26899       0.00885       0.43898       0.00000       0.00000       0.00000       0.00000       0.00000       0.00000       0.00000       0.00000  
       9         9         1      2017    recall           pt00017      30.66458       0.00059       0.00192       0.00587       0.16415       0.04769       0.00000       0.26899       0.00885       0.43898       0.00000       0.00000       0.00000       0.00000       0.00000       0.00000       0.00000       0.00000  
      10        10         1      2017    recall           pt00017      30.66458       0.00059       0.00192       0.00587       0.16415       0.04769       0.00000       0.26899       0.00885       0.43898       0.00000       0.00000       0.00000       0.00000       0.00000       0.00000       0.00000       0.00000  
      11        11         1      2017    recall           pt00017      30.66458       0.00059       0.00192       0.00587       0.16415       0.04769       0.00000       0.26899       0.00885       0.43898       0.00000       0.00000       0.00000       0.00000       0.00000       0.00000       0.00000       0.00000  
      12        12         1      2017    recall           pt00017      30.66458       0.00059       0.00192       0.00587       0.16415       0.04769       0.00000       0.26899       0.00885       0.43898       0.00000       0.00000       0.00000       0.00000       0.00000       0.00000       0.00000       0.00000  
       1         1         1      2018    recall           pt00017      29.56942       0.00083       0.00000       0.00000       0.16483       0.09112       0.00000       0.48160       0.00357       0.45667       0.00000       0.00000       0.00000       0.00000       0.00000       0.00000       0.00000       0.00000  
       2         2         1      2018    recall           pt00017      29.56942       0.00083       0.00000       0.00000       0.16483       0.09112       0.00000       0.48160       0.00357       0.45667       0.00000       0.00000       0.00000       0.00000       0.00000       0.00000       0.00000       0.00000  
       3         3         1      2018    recall           pt00017      29.56942       0.00083       0.00000       0.00000       0.16483       0.09112       0.00000       0.48160       0.00357       0.45667       0.00000       0.00000       0.00000       0.00000       0.00000       0.00000       0.00000       0.00000  
       4         4         1      2018    recall           pt00017      29.56942       0.00083       0.00000       0.00000       0.16483       0.09112       0.00000       0.48160       0.00357       0.45667       0.00000       0.00000       0.00000       0.00000       0.00000       0.00000       0.00000       0.00000  
       5         5         1      2018    recall           pt00017      29.56942       0.00083       0.00000       0.00000       0.16483       0.09112       0.00000       0.48160       0.00357       0.45667       0.00000       0.00000       0.00000       0.00000       0.00000       0.00000       0.00000       0.00000  
       6         6         1      2018    recall           pt00017      29.56942       0.00083       0.00000       0.00000       0.16483       0.09112       0.00000       0.48160       0.00357       0.45667       0.00000       0.00000       0.00000       0.00000       0.00000       0.00000       0.00000       0.00000  
       7         7         1      2018    recall           pt00017      29.56942       0.00083       0.00000       0.00000       0.16483       0.09112       0.00000       0.48160       0.00357       0.45667       0.00000       0.00000       0.00000       0.00000       0.00000       0.00000       0.00000       0.00000  
       8         8         1      2018    recall           pt00017      29.56942       0.00083       0.00000       0.00000       0.16483       0.09112       0.00000       0.48160       0.00357       0.45667       0.00000       0.00000       0.00000       0.00000       0.00000       0.00000       0.00000       0.00000  
       9         9         1      2018    recall           pt00017      29.56942       0.00083       0.00000       0.00000       0.16483       0.09112       0.00000       0.48160       0.00357       0.45667       0.00000       0.00000       0.00000       0.00000       0.00000       0.00000       0.00000       0.00000  
      10        10         1      2018    recall           pt00017      29.56942       0.00083       0.00000       0.00000       0.16483       0.09112       0.00000       0.48160       0.00357       0.45667       0.00000       0.00000       0.00000       0.00000       0.00000       0.00000       0.00000       0.00000  
      11        11         1      2018    recall           pt00017      29.56942       0.00083       0.00000       0.00000       0.16483       0.09112       0.00000       0.48160       0.00357       0.45667       0.00000       0.00000       0.00000       0.00000       0.00000       0.00000       0.00000       0.00000  
      12        12         1      2018    recall           pt00017      29.56942       0.00083       0.00000       0.00000       0.16483       0.09112       0.00000       0.48160       0.00357       0.45667       0.00000       0.00000       0.00000       0.00000       0.00000       0.00000       0.00000       0.00000  
       1         1         1      2019    recall           pt00017      31.09444       0.00095       0.00000       0.00000       0.22862       0.12018       0.00000       0.41288       0.00712       0.48926       0.00000       0.00000       0.00000       0.00000       0.00000       0.00000       0.00000       0.00000  
       2         2         1      2019    recall           pt00017      31.09444       0.00095       0.00000       0.00000       0.22862       0.12018       0.00000       0.41288       0.00712       0.48926       0.00000       0.00000       0.00000       0.00000       0.00000       0.00000       0.00000       0.00000  
       3         3         1      2019    recall           pt00017      31.09444       0.00095       0.00000       0.00000       0.22862       0.12018       0.00000       0.41288       0.00712       0.48926       0.00000       0.00000       0.00000       0.00000       0.00000       0.00000       0.00000       0.00000  
       4         4         1      2019    recall           pt00017      31.09444       0.00095       0.00000       0.00000       0.22862       0.12018       0.00000       0.41288       0.00712       0.48926       0.00000       0.00000       0.00000       0.00000       0.00000       0.00000       0.00000       0.00000  
       5         5         1      2019    recall           pt00017      31.09444       0.00095       0.00000       0.00000       0.22862       0.12018       0.00000       0.41288       0.00712       0.48926       0.00000       0.00000       0.00000       0.00000       0.00000       0.00000       0.00000       0.00000  
       6         6         1      2019    recall           pt00017      31.09444       0.00095       0.00000       0.00000       0.22862       0.12018       0.00000       0.41288       0.00712       0.48926       0.00000       0.00000       0.00000       0.00000       0.00000       0.00000       0.00000       0.00000  
       7         7         1      2019    recall           pt00017      31.09444       0.00095       0.00000       0.00000       0.22862       0.12018       0.00000       0.41288       0.00712       0.48926       0.00000       0.00000       0.00000       0.00000       0.00000       0.00000       0.00000       0.00000  
       8         8         1      2019    recall           pt00017      31.09444       0.00095       0.00000       0.00000       0.22862       0.12018       0.00000       0.41288       0.00712       0.48926       0.00000       0.00000       0.00000       0.00000       0.00000       0.00000       0.00000       0.00000  
       9         9         1      2019    recall           pt00017      31.09444       0.00095       0.00000       0.00000       0.22862       0.12018       0.00000       0.41288       0.00712       0.48926       0.00000       0.00000       0.00000       0.00000       0.00000       0.00000       0.00000       0.00000  
      10        10         1      2019    recall           pt00017      31.09444       0.00095       0.00000       0.00000       0.22862       0.12018       0.00000       0.41288       0.00712       0.48926       0.00000       0.00000       0.00000       0.00000       0.00000       0.00000       0.00000       0.00000  
      11        11         1      2019    recall           pt00017      31.09444       0.00095       0.00000       0.00000       0.22862       0.12018       0.00000       0.41288       0.00712       0.48926       0.00000       0.00000       0.00000       0.00000       0.00000       0.00000       0.00000       0.00000  
      12        12         1      2019    recall           pt00017      31.09444       0.00095       0.00000       0.00000       0.22862       0.12018       0.00000       0.41288       0.00712       0.48926       0.00000       0.00000       0.00000       0.00000       0.00000       0.00000       0.00000       0.00000  
