recall.rec: written by SWAT+ editor v2.0.0 on 2022-02-14 13:07
26
    jday        mo    day_mo       iyr    ob_typ           ob_name           flo           sed         ptl_n         ptl_p         no3_n         sol_p          chla         nh3_n         no2_n       cbn_bod           oxy          sand          silt          clay        sm_agg        lg_agg        gravel           tmp  
       1         1         1      1994    recall           pt00015       0.00000       0.00000       0.00000       0.00000       0.00000       0.00000       0.00000       0.00000       0.00000       0.00000       0.00000       0.00000       0.00000       0.00000       0.00000       0.00000       0.00000       0.00000  
       2         2         1      1994    recall           pt00015       0.00000       0.00000       0.00000       0.00000       0.00000       0.00000       0.00000       0.00000       0.00000       0.00000       0.00000       0.00000       0.00000       0.00000       0.00000       0.00000       0.00000       0.00000  
       3         3         1      1994    recall           pt00015       0.00000       0.00000       0.00000       0.00000       0.00000       0.00000       0.00000       0.00000       0.00000       0.00000       0.00000       0.00000       0.00000       0.00000       0.00000       0.00000       0.00000       0.00000  
       4         4         1      1994    recall           pt00015       0.00000       0.00000       0.00000       0.00000       0.00000       0.00000       0.00000       0.00000       0.00000       0.00000       0.00000       0.00000       0.00000       0.00000       0.00000       0.00000       0.00000       0.00000  
       5         5         1      1994    recall           pt00015       0.00000       0.00000       0.00000       0.00000       0.00000       0.00000       0.00000       0.00000       0.00000       0.00000       0.00000       0.00000       0.00000       0.00000       0.00000       0.00000       0.00000       0.00000  
       6         6         1      1994    recall           pt00015       0.00000       0.00000       0.00000       0.00000       0.00000       0.00000       0.00000       0.00000       0.00000       0.00000       0.00000       0.00000       0.00000       0.00000       0.00000       0.00000       0.00000       0.00000  
       7         7         1      1994    recall           pt00015       0.00000       0.00000       0.00000       0.00000       0.00000       0.00000       0.00000       0.00000       0.00000       0.00000       0.00000       0.00000       0.00000       0.00000       0.00000       0.00000       0.00000       0.00000  
       8         8         1      1994    recall           pt00015       0.00000       0.00000       0.00000       0.00000       0.00000       0.00000       0.00000       0.00000       0.00000       0.00000       0.00000       0.00000       0.00000       0.00000       0.00000       0.00000       0.00000       0.00000  
       9         9         1      1994    recall           pt00015       0.00000       0.00000       0.00000       0.00000       0.00000       0.00000       0.00000       0.00000       0.00000       0.00000       0.00000       0.00000       0.00000       0.00000       0.00000       0.00000       0.00000       0.00000  
      10        10         1      1994    recall           pt00015       0.00000       0.00000       0.00000       0.00000       0.00000       0.00000       0.00000       0.00000       0.00000       0.00000       0.00000       0.00000       0.00000       0.00000       0.00000       0.00000       0.00000       0.00000  
      11        11         1      1994    recall           pt00015       0.00000       0.00000       0.00000       0.00000       0.00000       0.00000       0.00000       0.00000       0.00000       0.00000       0.00000       0.00000       0.00000       0.00000       0.00000       0.00000       0.00000       0.00000  
      12        12         1      1994    recall           pt00015       0.00000       0.00000       0.00000       0.00000       0.00000       0.00000       0.00000       0.00000       0.00000       0.00000       0.00000       0.00000       0.00000       0.00000       0.00000       0.00000       0.00000       0.00000  
       1         1         1      1995    recall           pt00015       0.00000       0.00000       0.00000       0.00000       0.00000       0.00000       0.00000       0.00000       0.00000       0.00000       0.00000       0.00000       0.00000       0.00000       0.00000       0.00000       0.00000       0.00000  
       2         2         1      1995    recall           pt00015       0.00000       0.00000       0.00000       0.00000       0.00000       0.00000       0.00000       0.00000       0.00000       0.00000       0.00000       0.00000       0.00000       0.00000       0.00000       0.00000       0.00000       0.00000  
       3         3         1      1995    recall           pt00015       0.00000       0.00000       0.00000       0.00000       0.00000       0.00000       0.00000       0.00000       0.00000       0.00000       0.00000       0.00000       0.00000       0.00000       0.00000       0.00000       0.00000       0.00000  
       4         4         1      1995    recall           pt00015       0.00000       0.00000       0.00000       0.00000       0.00000       0.00000       0.00000       0.00000       0.00000       0.00000       0.00000       0.00000       0.00000       0.00000       0.00000       0.00000       0.00000       0.00000  
       5         5         1      1995    recall           pt00015       0.00000       0.00000       0.00000       0.00000       0.00000       0.00000       0.00000       0.00000       0.00000       0.00000       0.00000       0.00000       0.00000       0.00000       0.00000       0.00000       0.00000       0.00000  
       6         6         1      1995    recall           pt00015       0.00000       0.00000       0.00000       0.00000       0.00000       0.00000       0.00000       0.00000       0.00000       0.00000       0.00000       0.00000       0.00000       0.00000       0.00000       0.00000       0.00000       0.00000  
       7         7         1      1995    recall           pt00015       0.00000       0.00000       0.00000       0.00000       0.00000       0.00000       0.00000       0.00000       0.00000       0.00000       0.00000       0.00000       0.00000       0.00000       0.00000       0.00000       0.00000       0.00000  
       8         8         1      1995    recall           pt00015       0.00000       0.00000       0.00000       0.00000       0.00000       0.00000       0.00000       0.00000       0.00000       0.00000       0.00000       0.00000       0.00000       0.00000       0.00000       0.00000       0.00000       0.00000  
       9         9         1      1995    recall           pt00015       0.00000       0.00000       0.00000       0.00000       0.00000       0.00000       0.00000       0.00000       0.00000       0.00000       0.00000       0.00000       0.00000       0.00000       0.00000       0.00000       0.00000       0.00000  
      10        10         1      1995    recall           pt00015       0.00000       0.00000       0.00000       0.00000       0.00000       0.00000       0.00000       0.00000       0.00000       0.00000       0.00000       0.00000       0.00000       0.00000       0.00000       0.00000       0.00000       0.00000  
      11        11         1      1995    recall           pt00015       0.00000       0.00000       0.00000       0.00000       0.00000       0.00000       0.00000       0.00000       0.00000       0.00000       0.00000       0.00000       0.00000       0.00000       0.00000       0.00000       0.00000       0.00000  
      12        12         1      1995    recall           pt00015       0.00000       0.00000       0.00000       0.00000       0.00000       0.00000       0.00000       0.00000       0.00000       0.00000       0.00000       0.00000       0.00000       0.00000       0.00000       0.00000       0.00000       0.00000  
       1         1         1      1996    recall           pt00015       0.00000       0.00000       0.00000       0.00000       0.00000       0.00000       0.00000       0.00000       0.00000       0.00000       0.00000       0.00000       0.00000       0.00000       0.00000       0.00000       0.00000       0.00000  
       2         2         1      1996    recall           pt00015       0.00000       0.00000       0.00000       0.00000       0.00000       0.00000       0.00000       0.00000       0.00000       0.00000       0.00000       0.00000       0.00000       0.00000       0.00000       0.00000       0.00000       0.00000  
       3         3         1      1996    recall           pt00015       0.00000       0.00000       0.00000       0.00000       0.00000       0.00000       0.00000       0.00000       0.00000       0.00000       0.00000       0.00000       0.00000       0.00000       0.00000       0.00000       0.00000       0.00000  
       4         4         1      1996    recall           pt00015       0.00000       0.00000       0.00000       0.00000       0.00000       0.00000       0.00000       0.00000       0.00000       0.00000       0.00000       0.00000       0.00000       0.00000       0.00000       0.00000       0.00000       0.00000  
       5         5         1      1996    recall           pt00015       0.00000       0.00000       0.00000       0.00000       0.00000       0.00000       0.00000       0.00000       0.00000       0.00000       0.00000       0.00000       0.00000       0.00000       0.00000       0.00000       0.00000       0.00000  
       6         6         1      1996    recall           pt00015       0.00000       0.00000       0.00000       0.00000       0.00000       0.00000       0.00000       0.00000       0.00000       0.00000       0.00000       0.00000       0.00000       0.00000       0.00000       0.00000       0.00000       0.00000  
       7         7         1      1996    recall           pt00015       0.00000       0.00000       0.00000       0.00000       0.00000       0.00000       0.00000       0.00000       0.00000       0.00000       0.00000       0.00000       0.00000       0.00000       0.00000       0.00000       0.00000       0.00000  
       8         8         1      1996    recall           pt00015       0.00000       0.00000       0.00000       0.00000       0.00000       0.00000       0.00000       0.00000       0.00000       0.00000       0.00000       0.00000       0.00000       0.00000       0.00000       0.00000       0.00000       0.00000  
       9         9         1      1996    recall           pt00015       0.00000       0.00000       0.00000       0.00000       0.00000       0.00000       0.00000       0.00000       0.00000       0.00000       0.00000       0.00000       0.00000       0.00000       0.00000       0.00000       0.00000       0.00000  
      10        10         1      1996    recall           pt00015       0.00000       0.00000       0.00000       0.00000       0.00000       0.00000       0.00000       0.00000       0.00000       0.00000       0.00000       0.00000       0.00000       0.00000       0.00000       0.00000       0.00000       0.00000  
      11        11         1      1996    recall           pt00015       0.00000       0.00000       0.00000       0.00000       0.00000       0.00000       0.00000       0.00000       0.00000       0.00000       0.00000       0.00000       0.00000       0.00000       0.00000       0.00000       0.00000       0.00000  
      12        12         1      1996    recall           pt00015       0.00000       0.00000       0.00000       0.00000       0.00000       0.00000       0.00000       0.00000       0.00000       0.00000       0.00000       0.00000       0.00000       0.00000       0.00000       0.00000       0.00000       0.00000  
       1         1         1      1997    recall           pt00015     134.15755       0.00362       4.92050       1.02692       0.03488       0.77811       0.00000       4.96383       0.00845       4.51257       0.00000       0.00000       0.00000       0.00000       0.00000       0.00000       0.00000       0.00000  
       2         2         1      1997    recall           pt00015     134.15755       0.00362       4.92050       1.02692       0.03488       0.77811       0.00000       4.96383       0.00845       4.51257       0.00000       0.00000       0.00000       0.00000       0.00000       0.00000       0.00000       0.00000  
       3         3         1      1997    recall           pt00015     134.15755       0.00362       4.92050       1.02692       0.03488       0.77811       0.00000       4.96383       0.00845       4.51257       0.00000       0.00000       0.00000       0.00000       0.00000       0.00000       0.00000       0.00000  
       4         4         1      1997    recall           pt00015     134.15755       0.00362       4.92050       1.02692       0.03488       0.77811       0.00000       4.96383       0.00845       4.51257       0.00000       0.00000       0.00000       0.00000       0.00000       0.00000       0.00000       0.00000  
       5         5         1      1997    recall           pt00015     134.15755       0.00362       4.92050       1.02692       0.03488       0.77811       0.00000       4.96383       0.00845       4.51257       0.00000       0.00000       0.00000       0.00000       0.00000       0.00000       0.00000       0.00000  
       6         6         1      1997    recall           pt00015     134.15755       0.00362       4.92050       1.02692       0.03488       0.77811       0.00000       4.96383       0.00845       4.51257       0.00000       0.00000       0.00000       0.00000       0.00000       0.00000       0.00000       0.00000  
       7         7         1      1997    recall           pt00015     134.15755       0.00362       4.92050       1.02692       0.03488       0.77811       0.00000       4.96383       0.00845       4.51257       0.00000       0.00000       0.00000       0.00000       0.00000       0.00000       0.00000       0.00000  
       8         8         1      1997    recall           pt00015     134.15755       0.00362       4.92050       1.02692       0.03488       0.77811       0.00000       4.96383       0.00845       4.51257       0.00000       0.00000       0.00000       0.00000       0.00000       0.00000       0.00000       0.00000  
       9         9         1      1997    recall           pt00015     134.15755       0.00362       4.92050       1.02692       0.03488       0.77811       0.00000       4.96383       0.00845       4.51257       0.00000       0.00000       0.00000       0.00000       0.00000       0.00000       0.00000       0.00000  
      10        10         1      1997    recall           pt00015     134.15755       0.00362       4.92050       1.02692       0.03488       0.77811       0.00000       4.96383       0.00845       4.51257       0.00000       0.00000       0.00000       0.00000       0.00000       0.00000       0.00000       0.00000  
      11        11         1      1997    recall           pt00015     134.15755       0.00362       4.92050       1.02692       0.03488       0.77811       0.00000       4.96383       0.00845       4.51257       0.00000       0.00000       0.00000       0.00000       0.00000       0.00000       0.00000       0.00000  
      12        12         1      1997    recall           pt00015     134.15755       0.00362       4.92050       1.02692       0.03488       0.77811       0.00000       4.96383       0.00845       4.51257       0.00000       0.00000       0.00000       0.00000       0.00000       0.00000       0.00000       0.00000  
       1         1         1      1998    recall           pt00015     134.15755       0.00335       2.86990       0.81836       0.16233       0.46955       0.00000       4.03814       0.01315       3.21978       0.00000       0.00000       0.00000       0.00000       0.00000       0.00000       0.00000       0.00000  
       2         2         1      1998    recall           pt00015     134.15755       0.00335       2.86990       0.81836       0.16233       0.46955       0.00000       4.03814       0.01315       3.21978       0.00000       0.00000       0.00000       0.00000       0.00000       0.00000       0.00000       0.00000  
       3         3         1      1998    recall           pt00015     134.15755       0.00335       2.86990       0.81836       0.16233       0.46955       0.00000       4.03814       0.01315       3.21978       0.00000       0.00000       0.00000       0.00000       0.00000       0.00000       0.00000       0.00000  
       4         4         1      1998    recall           pt00015     134.15755       0.00335       2.86990       0.81836       0.16233       0.46955       0.00000       4.03814       0.01315       3.21978       0.00000       0.00000       0.00000       0.00000       0.00000       0.00000       0.00000       0.00000  
       5         5         1      1998    recall           pt00015     134.15755       0.00335       2.86990       0.81836       0.16233       0.46955       0.00000       4.03814       0.01315       3.21978       0.00000       0.00000       0.00000       0.00000       0.00000       0.00000       0.00000       0.00000  
       6         6         1      1998    recall           pt00015     134.15755       0.00335       2.86990       0.81836       0.16233       0.46955       0.00000       4.03814       0.01315       3.21978       0.00000       0.00000       0.00000       0.00000       0.00000       0.00000       0.00000       0.00000  
       7         7         1      1998    recall           pt00015     134.15755       0.00335       2.86990       0.81836       0.16233       0.46955       0.00000       4.03814       0.01315       3.21978       0.00000       0.00000       0.00000       0.00000       0.00000       0.00000       0.00000       0.00000  
       8         8         1      1998    recall           pt00015     134.15755       0.00335       2.86990       0.81836       0.16233       0.46955       0.00000       4.03814       0.01315       3.21978       0.00000       0.00000       0.00000       0.00000       0.00000       0.00000       0.00000       0.00000  
       9         9         1      1998    recall           pt00015     134.15755       0.00335       2.86990       0.81836       0.16233       0.46955       0.00000       4.03814       0.01315       3.21978       0.00000       0.00000       0.00000       0.00000       0.00000       0.00000       0.00000       0.00000  
      10        10         1      1998    recall           pt00015     134.15755       0.00335       2.86990       0.81836       0.16233       0.46955       0.00000       4.03814       0.01315       3.21978       0.00000       0.00000       0.00000       0.00000       0.00000       0.00000       0.00000       0.00000  
      11        11         1      1998    recall           pt00015     134.15755       0.00335       2.86990       0.81836       0.16233       0.46955       0.00000       4.03814       0.01315       3.21978       0.00000       0.00000       0.00000       0.00000       0.00000       0.00000       0.00000       0.00000  
      12        12         1      1998    recall           pt00015     134.15755       0.00335       2.86990       0.81836       0.16233       0.46955       0.00000       4.03814       0.01315       3.21978       0.00000       0.00000       0.00000       0.00000       0.00000       0.00000       0.00000       0.00000  
       1         1         1      1999    recall           pt00015      96.64820       0.00233       0.43588       0.55669       0.08022       0.56056       0.00000       5.60560       0.02320       2.79313       0.00000       0.00000       0.00000       0.00000       0.00000       0.00000       0.00000       0.00000  
       2         2         1      1999    recall           pt00015      96.64820       0.00233       0.43588       0.55669       0.08022       0.56056       0.00000       5.60560       0.02320       2.79313       0.00000       0.00000       0.00000       0.00000       0.00000       0.00000       0.00000       0.00000  
       3         3         1      1999    recall           pt00015      96.64820       0.00233       0.43588       0.55669       0.08022       0.56056       0.00000       5.60560       0.02320       2.79313       0.00000       0.00000       0.00000       0.00000       0.00000       0.00000       0.00000       0.00000  
       4         4         1      1999    recall           pt00015      96.64820       0.00233       0.43588       0.55669       0.08022       0.56056       0.00000       5.60560       0.02320       2.79313       0.00000       0.00000       0.00000       0.00000       0.00000       0.00000       0.00000       0.00000  
       5         5         1      1999    recall           pt00015      96.64820       0.00233       0.43588       0.55669       0.08022       0.56056       0.00000       5.60560       0.02320       2.79313       0.00000       0.00000       0.00000       0.00000       0.00000       0.00000       0.00000       0.00000  
       6         6         1      1999    recall           pt00015      96.64820       0.00233       0.43588       0.55669       0.08022       0.56056       0.00000       5.60560       0.02320       2.79313       0.00000       0.00000       0.00000       0.00000       0.00000       0.00000       0.00000       0.00000  
       7         7         1      1999    recall           pt00015      96.64820       0.00233       0.43588       0.55669       0.08022       0.56056       0.00000       5.60560       0.02320       2.79313       0.00000       0.00000       0.00000       0.00000       0.00000       0.00000       0.00000       0.00000  
       8         8         1      1999    recall           pt00015      96.64820       0.00233       0.43588       0.55669       0.08022       0.56056       0.00000       5.60560       0.02320       2.79313       0.00000       0.00000       0.00000       0.00000       0.00000       0.00000       0.00000       0.00000  
       9         9         1      1999    recall           pt00015      96.64820       0.00233       0.43588       0.55669       0.08022       0.56056       0.00000       5.60560       0.02320       2.79313       0.00000       0.00000       0.00000       0.00000       0.00000       0.00000       0.00000       0.00000  
      10        10         1      1999    recall           pt00015      96.64820       0.00233       0.43588       0.55669       0.08022       0.56056       0.00000       5.60560       0.02320       2.79313       0.00000       0.00000       0.00000       0.00000       0.00000       0.00000       0.00000       0.00000  
      11        11         1      1999    recall           pt00015      96.64820       0.00233       0.43588       0.55669       0.08022       0.56056       0.00000       5.60560       0.02320       2.79313       0.00000       0.00000       0.00000       0.00000       0.00000       0.00000       0.00000       0.00000  
      12        12         1      1999    recall           pt00015      96.64820       0.00233       0.43588       0.55669       0.08022       0.56056       0.00000       5.60560       0.02320       2.79313       0.00000       0.00000       0.00000       0.00000       0.00000       0.00000       0.00000       0.00000  
       1         1         1      2000    recall           pt00015      96.64820       0.00106       2.03928       0.30927       0.25129       0.50257       0.00000       2.09727       0.07732       2.02961       0.00000       0.00000       0.00000       0.00000       0.00000       0.00000       0.00000       0.00000  
       2         2         1      2000    recall           pt00015      96.64820       0.00106       2.03928       0.30927       0.25129       0.50257       0.00000       2.09727       0.07732       2.02961       0.00000       0.00000       0.00000       0.00000       0.00000       0.00000       0.00000       0.00000  
       3         3         1      2000    recall           pt00015      96.64820       0.00106       2.03928       0.30927       0.25129       0.50257       0.00000       2.09727       0.07732       2.02961       0.00000       0.00000       0.00000       0.00000       0.00000       0.00000       0.00000       0.00000  
       4         4         1      2000    recall           pt00015      96.64820       0.00106       2.03928       0.30927       0.25129       0.50257       0.00000       2.09727       0.07732       2.02961       0.00000       0.00000       0.00000       0.00000       0.00000       0.00000       0.00000       0.00000  
       5         5         1      2000    recall           pt00015      96.64820       0.00106       2.03928       0.30927       0.25129       0.50257       0.00000       2.09727       0.07732       2.02961       0.00000       0.00000       0.00000       0.00000       0.00000       0.00000       0.00000       0.00000  
       6         6         1      2000    recall           pt00015      96.64820       0.00106       2.03928       0.30927       0.25129       0.50257       0.00000       2.09727       0.07732       2.02961       0.00000       0.00000       0.00000       0.00000       0.00000       0.00000       0.00000       0.00000  
       7         7         1      2000    recall           pt00015      96.64820       0.00106       2.03928       0.30927       0.25129       0.50257       0.00000       2.09727       0.07732       2.02961       0.00000       0.00000       0.00000       0.00000       0.00000       0.00000       0.00000       0.00000  
       8         8         1      2000    recall           pt00015      96.64820       0.00106       2.03928       0.30927       0.25129       0.50257       0.00000       2.09727       0.07732       2.02961       0.00000       0.00000       0.00000       0.00000       0.00000       0.00000       0.00000       0.00000  
       9         9         1      2000    recall           pt00015      96.64820       0.00106       2.03928       0.30927       0.25129       0.50257       0.00000       2.09727       0.07732       2.02961       0.00000       0.00000       0.00000       0.00000       0.00000       0.00000       0.00000       0.00000  
      10        10         1      2000    recall           pt00015      96.64820       0.00106       2.03928       0.30927       0.25129       0.50257       0.00000       2.09727       0.07732       2.02961       0.00000       0.00000       0.00000       0.00000       0.00000       0.00000       0.00000       0.00000  
      11        11         1      2000    recall           pt00015      96.64820       0.00106       2.03928       0.30927       0.25129       0.50257       0.00000       2.09727       0.07732       2.02961       0.00000       0.00000       0.00000       0.00000       0.00000       0.00000       0.00000       0.00000  
      12        12         1      2000    recall           pt00015      96.64820       0.00106       2.03928       0.30927       0.25129       0.50257       0.00000       2.09727       0.07732       2.02961       0.00000       0.00000       0.00000       0.00000       0.00000       0.00000       0.00000       0.00000  
       1         1         1      2001    recall           pt00015      68.44773       0.00066       0.00000       0.01711       0.07871       0.34155       0.00000       2.25878       0.02943       0.89667       0.00000       0.00000       0.00000       0.00000       0.00000       0.00000       0.00000       0.00000  
       2         2         1      2001    recall           pt00015      68.44773       0.00066       0.00000       0.01711       0.07871       0.34155       0.00000       2.25878       0.02943       0.89667       0.00000       0.00000       0.00000       0.00000       0.00000       0.00000       0.00000       0.00000  
       3         3         1      2001    recall           pt00015      68.44773       0.00066       0.00000       0.01711       0.07871       0.34155       0.00000       2.25878       0.02943       0.89667       0.00000       0.00000       0.00000       0.00000       0.00000       0.00000       0.00000       0.00000  
       4         4         1      2001    recall           pt00015      68.44773       0.00066       0.00000       0.01711       0.07871       0.34155       0.00000       2.25878       0.02943       0.89667       0.00000       0.00000       0.00000       0.00000       0.00000       0.00000       0.00000       0.00000  
       5         5         1      2001    recall           pt00015      68.44773       0.00066       0.00000       0.01711       0.07871       0.34155       0.00000       2.25878       0.02943       0.89667       0.00000       0.00000       0.00000       0.00000       0.00000       0.00000       0.00000       0.00000  
       6         6         1      2001    recall           pt00015      68.44773       0.00066       0.00000       0.01711       0.07871       0.34155       0.00000       2.25878       0.02943       0.89667       0.00000       0.00000       0.00000       0.00000       0.00000       0.00000       0.00000       0.00000  
       7         7         1      2001    recall           pt00015      68.44773       0.00066       0.00000       0.01711       0.07871       0.34155       0.00000       2.25878       0.02943       0.89667       0.00000       0.00000       0.00000       0.00000       0.00000       0.00000       0.00000       0.00000  
       8         8         1      2001    recall           pt00015      68.44773       0.00066       0.00000       0.01711       0.07871       0.34155       0.00000       2.25878       0.02943       0.89667       0.00000       0.00000       0.00000       0.00000       0.00000       0.00000       0.00000       0.00000  
       9         9         1      2001    recall           pt00015      68.44773       0.00066       0.00000       0.01711       0.07871       0.34155       0.00000       2.25878       0.02943       0.89667       0.00000       0.00000       0.00000       0.00000       0.00000       0.00000       0.00000       0.00000  
      10        10         1      2001    recall           pt00015      68.44773       0.00066       0.00000       0.01711       0.07871       0.34155       0.00000       2.25878       0.02943       0.89667       0.00000       0.00000       0.00000       0.00000       0.00000       0.00000       0.00000       0.00000  
      11        11         1      2001    recall           pt00015      68.44773       0.00066       0.00000       0.01711       0.07871       0.34155       0.00000       2.25878       0.02943       0.89667       0.00000       0.00000       0.00000       0.00000       0.00000       0.00000       0.00000       0.00000  
      12        12         1      2001    recall           pt00015      68.44773       0.00066       0.00000       0.01711       0.07871       0.34155       0.00000       2.25878       0.02943       0.89667       0.00000       0.00000       0.00000       0.00000       0.00000       0.00000       0.00000       0.00000  
       1         1         1      2002    recall           pt00015      68.44773       0.00185       2.05754       0.32650       0.09377       0.24299       0.00000       0.93500       0.04586       1.42371       0.00000       0.00000       0.00000       0.00000       0.00000       0.00000       0.00000       0.00000  
       2         2         1      2002    recall           pt00015      68.44773       0.00185       2.05754       0.32650       0.09377       0.24299       0.00000       0.93500       0.04586       1.42371       0.00000       0.00000       0.00000       0.00000       0.00000       0.00000       0.00000       0.00000  
       3         3         1      2002    recall           pt00015      68.44773       0.00185       2.05754       0.32650       0.09377       0.24299       0.00000       0.93500       0.04586       1.42371       0.00000       0.00000       0.00000       0.00000       0.00000       0.00000       0.00000       0.00000  
       4         4         1      2002    recall           pt00015      68.44773       0.00185       2.05754       0.32650       0.09377       0.24299       0.00000       0.93500       0.04586       1.42371       0.00000       0.00000       0.00000       0.00000       0.00000       0.00000       0.00000       0.00000  
       5         5         1      2002    recall           pt00015      68.44773       0.00185       2.05754       0.32650       0.09377       0.24299       0.00000       0.93500       0.04586       1.42371       0.00000       0.00000       0.00000       0.00000       0.00000       0.00000       0.00000       0.00000  
       6         6         1      2002    recall           pt00015      68.44773       0.00185       2.05754       0.32650       0.09377       0.24299       0.00000       0.93500       0.04586       1.42371       0.00000       0.00000       0.00000       0.00000       0.00000       0.00000       0.00000       0.00000  
       7         7         1      2002    recall           pt00015      68.44773       0.00185       2.05754       0.32650       0.09377       0.24299       0.00000       0.93500       0.04586       1.42371       0.00000       0.00000       0.00000       0.00000       0.00000       0.00000       0.00000       0.00000  
       8         8         1      2002    recall           pt00015      68.44773       0.00185       2.05754       0.32650       0.09377       0.24299       0.00000       0.93500       0.04586       1.42371       0.00000       0.00000       0.00000       0.00000       0.00000       0.00000       0.00000       0.00000  
       9         9         1      2002    recall           pt00015      68.44773       0.00185       2.05754       0.32650       0.09377       0.24299       0.00000       0.93500       0.04586       1.42371       0.00000       0.00000       0.00000       0.00000       0.00000       0.00000       0.00000       0.00000  
      10        10         1      2002    recall           pt00015      68.44773       0.00185       2.05754       0.32650       0.09377       0.24299       0.00000       0.93500       0.04586       1.42371       0.00000       0.00000       0.00000       0.00000       0.00000       0.00000       0.00000       0.00000  
      11        11         1      2002    recall           pt00015      68.44773       0.00185       2.05754       0.32650       0.09377       0.24299       0.00000       0.93500       0.04586       1.42371       0.00000       0.00000       0.00000       0.00000       0.00000       0.00000       0.00000       0.00000  
      12        12         1      2002    recall           pt00015      68.44773       0.00185       2.05754       0.32650       0.09377       0.24299       0.00000       0.93500       0.04586       1.42371       0.00000       0.00000       0.00000       0.00000       0.00000       0.00000       0.00000       0.00000  
       1         1         1      2003    recall           pt00015      65.70982       0.00191       0.54933       0.24970       0.82400       0.24970       0.00000       1.37334       0.00000       1.24849       0.00000       0.00000       0.00000       0.00000       0.00000       0.00000       0.00000       0.00000  
       2         2         1      2003    recall           pt00015      65.70982       0.00191       0.54933       0.24970       0.82400       0.24970       0.00000       1.37334       0.00000       1.24849       0.00000       0.00000       0.00000       0.00000       0.00000       0.00000       0.00000       0.00000  
       3         3         1      2003    recall           pt00015      65.70982       0.00191       0.54933       0.24970       0.82400       0.24970       0.00000       1.37334       0.00000       1.24849       0.00000       0.00000       0.00000       0.00000       0.00000       0.00000       0.00000       0.00000  
       4         4         1      2003    recall           pt00015      65.70982       0.00191       0.54933       0.24970       0.82400       0.24970       0.00000       1.37334       0.00000       1.24849       0.00000       0.00000       0.00000       0.00000       0.00000       0.00000       0.00000       0.00000  
       5         5         1      2003    recall           pt00015      65.70982       0.00191       0.54933       0.24970       0.82400       0.24970       0.00000       1.37334       0.00000       1.24849       0.00000       0.00000       0.00000       0.00000       0.00000       0.00000       0.00000       0.00000  
       6         6         1      2003    recall           pt00015      65.70982       0.00191       0.54933       0.24970       0.82400       0.24970       0.00000       1.37334       0.00000       1.24849       0.00000       0.00000       0.00000       0.00000       0.00000       0.00000       0.00000       0.00000  
       7         7         1      2003    recall           pt00015      65.70982       0.00191       0.54933       0.24970       0.82400       0.24970       0.00000       1.37334       0.00000       1.24849       0.00000       0.00000       0.00000       0.00000       0.00000       0.00000       0.00000       0.00000  
       8         8         1      2003    recall           pt00015      65.70982       0.00191       0.54933       0.24970       0.82400       0.24970       0.00000       1.37334       0.00000       1.24849       0.00000       0.00000       0.00000       0.00000       0.00000       0.00000       0.00000       0.00000  
       9         9         1      2003    recall           pt00015      65.70982       0.00191       0.54933       0.24970       0.82400       0.24970       0.00000       1.37334       0.00000       1.24849       0.00000       0.00000       0.00000       0.00000       0.00000       0.00000       0.00000       0.00000  
      10        10         1      2003    recall           pt00015      65.70982       0.00191       0.54933       0.24970       0.82400       0.24970       0.00000       1.37334       0.00000       1.24849       0.00000       0.00000       0.00000       0.00000       0.00000       0.00000       0.00000       0.00000  
      11        11         1      2003    recall           pt00015      65.70982       0.00191       0.54933       0.24970       0.82400       0.24970       0.00000       1.37334       0.00000       1.24849       0.00000       0.00000       0.00000       0.00000       0.00000       0.00000       0.00000       0.00000  
      12        12         1      2003    recall           pt00015      65.70982       0.00191       0.54933       0.24970       0.82400       0.24970       0.00000       1.37334       0.00000       1.24849       0.00000       0.00000       0.00000       0.00000       0.00000       0.00000       0.00000       0.00000  
       1         1         1      2004    recall           pt00015     168.65521       0.00178       0.63487       0.34570       1.31792       0.34570       0.00000       1.67558       0.01738       1.82373       0.00000       0.00000       0.00000       0.00000       0.00000       0.00000       0.00000       0.00000  
       2         2         1      2004    recall           pt00015     168.65521       0.00178       0.63487       0.34570       1.31792       0.34570       0.00000       1.67558       0.01738       1.82373       0.00000       0.00000       0.00000       0.00000       0.00000       0.00000       0.00000       0.00000  
       3         3         1      2004    recall           pt00015     168.65521       0.00178       0.63487       0.34570       1.31792       0.34570       0.00000       1.67558       0.01738       1.82373       0.00000       0.00000       0.00000       0.00000       0.00000       0.00000       0.00000       0.00000  
       4         4         1      2004    recall           pt00015     168.65521       0.00178       0.63487       0.34570       1.31792       0.34570       0.00000       1.67558       0.01738       1.82373       0.00000       0.00000       0.00000       0.00000       0.00000       0.00000       0.00000       0.00000  
       5         5         1      2004    recall           pt00015     168.65521       0.00178       0.63487       0.34570       1.31792       0.34570       0.00000       1.67558       0.01738       1.82373       0.00000       0.00000       0.00000       0.00000       0.00000       0.00000       0.00000       0.00000  
       6         6         1      2004    recall           pt00015     168.65521       0.00178       0.63487       0.34570       1.31792       0.34570       0.00000       1.67558       0.01738       1.82373       0.00000       0.00000       0.00000       0.00000       0.00000       0.00000       0.00000       0.00000  
       7         7         1      2004    recall           pt00015     168.65521       0.00178       0.63487       0.34570       1.31792       0.34570       0.00000       1.67558       0.01738       1.82373       0.00000       0.00000       0.00000       0.00000       0.00000       0.00000       0.00000       0.00000  
       8         8         1      2004    recall           pt00015     168.65521       0.00178       0.63487       0.34570       1.31792       0.34570       0.00000       1.67558       0.01738       1.82373       0.00000       0.00000       0.00000       0.00000       0.00000       0.00000       0.00000       0.00000  
       9         9         1      2004    recall           pt00015     168.65521       0.00178       0.63487       0.34570       1.31792       0.34570       0.00000       1.67558       0.01738       1.82373       0.00000       0.00000       0.00000       0.00000       0.00000       0.00000       0.00000       0.00000  
      10        10         1      2004    recall           pt00015     168.65521       0.00178       0.63487       0.34570       1.31792       0.34570       0.00000       1.67558       0.01738       1.82373       0.00000       0.00000       0.00000       0.00000       0.00000       0.00000       0.00000       0.00000  
      11        11         1      2004    recall           pt00015     168.65521       0.00178       0.63487       0.34570       1.31792       0.34570       0.00000       1.67558       0.01738       1.82373       0.00000       0.00000       0.00000       0.00000       0.00000       0.00000       0.00000       0.00000  
      12        12         1      2004    recall           pt00015     168.65521       0.00178       0.63487       0.34570       1.31792       0.34570       0.00000       1.67558       0.01738       1.82373       0.00000       0.00000       0.00000       0.00000       0.00000       0.00000       0.00000       0.00000  
       1         1         1      2005    recall           pt00015     407.12711       0.00404       0.34454       0.50836       2.76801       0.50836       0.00000       1.45106       0.08325       3.12804       0.00000       0.00000       0.00000       0.00000       0.00000       0.00000       0.00000       0.00000  
       2         2         1      2005    recall           pt00015     407.12711       0.00404       0.34454       0.50836       2.76801       0.50836       0.00000       1.45106       0.08325       3.12804       0.00000       0.00000       0.00000       0.00000       0.00000       0.00000       0.00000       0.00000  
       3         3         1      2005    recall           pt00015     407.12711       0.00404       0.34454       0.50836       2.76801       0.50836       0.00000       1.45106       0.08325       3.12804       0.00000       0.00000       0.00000       0.00000       0.00000       0.00000       0.00000       0.00000  
       4         4         1      2005    recall           pt00015     407.12711       0.00404       0.34454       0.50836       2.76801       0.50836       0.00000       1.45106       0.08325       3.12804       0.00000       0.00000       0.00000       0.00000       0.00000       0.00000       0.00000       0.00000  
       5         5         1      2005    recall           pt00015     407.12711       0.00404       0.34454       0.50836       2.76801       0.50836       0.00000       1.45106       0.08325       3.12804       0.00000       0.00000       0.00000       0.00000       0.00000       0.00000       0.00000       0.00000  
       6         6         1      2005    recall           pt00015     407.12711       0.00404       0.34454       0.50836       2.76801       0.50836       0.00000       1.45106       0.08325       3.12804       0.00000       0.00000       0.00000       0.00000       0.00000       0.00000       0.00000       0.00000  
       7         7         1      2005    recall           pt00015     407.12711       0.00404       0.34454       0.50836       2.76801       0.50836       0.00000       1.45106       0.08325       3.12804       0.00000       0.00000       0.00000       0.00000       0.00000       0.00000       0.00000       0.00000  
       8         8         1      2005    recall           pt00015     407.12711       0.00404       0.34454       0.50836       2.76801       0.50836       0.00000       1.45106       0.08325       3.12804       0.00000       0.00000       0.00000       0.00000       0.00000       0.00000       0.00000       0.00000  
       9         9         1      2005    recall           pt00015     407.12711       0.00404       0.34454       0.50836       2.76801       0.50836       0.00000       1.45106       0.08325       3.12804       0.00000       0.00000       0.00000       0.00000       0.00000       0.00000       0.00000       0.00000  
      10        10         1      2005    recall           pt00015     407.12711       0.00404       0.34454       0.50836       2.76801       0.50836       0.00000       1.45106       0.08325       3.12804       0.00000       0.00000       0.00000       0.00000       0.00000       0.00000       0.00000       0.00000  
      11        11         1      2005    recall           pt00015     407.12711       0.00404       0.34454       0.50836       2.76801       0.50836       0.00000       1.45106       0.08325       3.12804       0.00000       0.00000       0.00000       0.00000       0.00000       0.00000       0.00000       0.00000  
      12        12         1      2005    recall           pt00015     407.12711       0.00404       0.34454       0.50836       2.76801       0.50836       0.00000       1.45106       0.08325       3.12804       0.00000       0.00000       0.00000       0.00000       0.00000       0.00000       0.00000       0.00000  
       1         1         1      2006    recall           pt00015     285.83773       0.00235       0.40718       0.26268       1.10739       0.26268       0.00000       1.21543       0.05538       1.44272       0.00000       0.00000       0.00000       0.00000       0.00000       0.00000       0.00000       0.00000  
       2         2         1      2006    recall           pt00015     285.83773       0.00235       0.40718       0.26268       1.10739       0.26268       0.00000       1.21543       0.05538       1.44272       0.00000       0.00000       0.00000       0.00000       0.00000       0.00000       0.00000       0.00000  
       3         3         1      2006    recall           pt00015     285.83773       0.00235       0.40718       0.26268       1.10739       0.26268       0.00000       1.21543       0.05538       1.44272       0.00000       0.00000       0.00000       0.00000       0.00000       0.00000       0.00000       0.00000  
       4         4         1      2006    recall           pt00015     285.83773       0.00235       0.40718       0.26268       1.10739       0.26268       0.00000       1.21543       0.05538       1.44272       0.00000       0.00000       0.00000       0.00000       0.00000       0.00000       0.00000       0.00000  
       5         5         1      2006    recall           pt00015     285.83773       0.00235       0.40718       0.26268       1.10739       0.26268       0.00000       1.21543       0.05538       1.44272       0.00000       0.00000       0.00000       0.00000       0.00000       0.00000       0.00000       0.00000  
       6         6         1      2006    recall           pt00015     285.83773       0.00235       0.40718       0.26268       1.10739       0.26268       0.00000       1.21543       0.05538       1.44272       0.00000       0.00000       0.00000       0.00000       0.00000       0.00000       0.00000       0.00000  
       7         7         1      2006    recall           pt00015     285.83773       0.00235       0.40718       0.26268       1.10739       0.26268       0.00000       1.21543       0.05538       1.44272       0.00000       0.00000       0.00000       0.00000       0.00000       0.00000       0.00000       0.00000  
       8         8         1      2006    recall           pt00015     285.83773       0.00235       0.40718       0.26268       1.10739       0.26268       0.00000       1.21543       0.05538       1.44272       0.00000       0.00000       0.00000       0.00000       0.00000       0.00000       0.00000       0.00000  
       9         9         1      2006    recall           pt00015     285.83773       0.00235       0.40718       0.26268       1.10739       0.26268       0.00000       1.21543       0.05538       1.44272       0.00000       0.00000       0.00000       0.00000       0.00000       0.00000       0.00000       0.00000  
      10        10         1      2006    recall           pt00015     285.83773       0.00235       0.40718       0.26268       1.10739       0.26268       0.00000       1.21543       0.05538       1.44272       0.00000       0.00000       0.00000       0.00000       0.00000       0.00000       0.00000       0.00000  
      11        11         1      2006    recall           pt00015     285.83773       0.00235       0.40718       0.26268       1.10739       0.26268       0.00000       1.21543       0.05538       1.44272       0.00000       0.00000       0.00000       0.00000       0.00000       0.00000       0.00000       0.00000  
      12        12         1      2006    recall           pt00015     285.83773       0.00235       0.40718       0.26268       1.10739       0.26268       0.00000       1.21543       0.05538       1.44272       0.00000       0.00000       0.00000       0.00000       0.00000       0.00000       0.00000       0.00000  
       1         1         1      2007    recall           pt00015     243.67392       0.00185       0.64506       0.34919       1.32589       0.34919       0.00000       1.76246       0.02497       1.83927       0.00000       0.00000       0.00000       0.00000       0.00000       0.00000       0.00000       0.00000  
       2         2         1      2007    recall           pt00015     243.67392       0.00185       0.64506       0.34919       1.32589       0.34919       0.00000       1.76246       0.02497       1.83927       0.00000       0.00000       0.00000       0.00000       0.00000       0.00000       0.00000       0.00000  
       3         3         1      2007    recall           pt00015     243.67392       0.00185       0.64506       0.34919       1.32589       0.34919       0.00000       1.76246       0.02497       1.83927       0.00000       0.00000       0.00000       0.00000       0.00000       0.00000       0.00000       0.00000  
       4         4         1      2007    recall           pt00015     243.67392       0.00185       0.64506       0.34919       1.32589       0.34919       0.00000       1.76246       0.02497       1.83927       0.00000       0.00000       0.00000       0.00000       0.00000       0.00000       0.00000       0.00000  
       5         5         1      2007    recall           pt00015     243.67392       0.00185       0.64506       0.34919       1.32589       0.34919       0.00000       1.76246       0.02497       1.83927       0.00000       0.00000       0.00000       0.00000       0.00000       0.00000       0.00000       0.00000  
       6         6         1      2007    recall           pt00015     243.67392       0.00185       0.64506       0.34919       1.32589       0.34919       0.00000       1.76246       0.02497       1.83927       0.00000       0.00000       0.00000       0.00000       0.00000       0.00000       0.00000       0.00000  
       7         7         1      2007    recall           pt00015     243.67392       0.00185       0.64506       0.34919       1.32589       0.34919       0.00000       1.76246       0.02497       1.83927       0.00000       0.00000       0.00000       0.00000       0.00000       0.00000       0.00000       0.00000  
       8         8         1      2007    recall           pt00015     243.67392       0.00185       0.64506       0.34919       1.32589       0.34919       0.00000       1.76246       0.02497       1.83927       0.00000       0.00000       0.00000       0.00000       0.00000       0.00000       0.00000       0.00000  
       9         9         1      2007    recall           pt00015     243.67392       0.00185       0.64506       0.34919       1.32589       0.34919       0.00000       1.76246       0.02497       1.83927       0.00000       0.00000       0.00000       0.00000       0.00000       0.00000       0.00000       0.00000  
      10        10         1      2007    recall           pt00015     243.67392       0.00185       0.64506       0.34919       1.32589       0.34919       0.00000       1.76246       0.02497       1.83927       0.00000       0.00000       0.00000       0.00000       0.00000       0.00000       0.00000       0.00000  
      11        11         1      2007    recall           pt00015     243.67392       0.00185       0.64506       0.34919       1.32589       0.34919       0.00000       1.76246       0.02497       1.83927       0.00000       0.00000       0.00000       0.00000       0.00000       0.00000       0.00000       0.00000  
      12        12         1      2007    recall           pt00015     243.67392       0.00185       0.64506       0.34919       1.32589       0.34919       0.00000       1.76246       0.02497       1.83927       0.00000       0.00000       0.00000       0.00000       0.00000       0.00000       0.00000       0.00000  
       1         1         1      2008    recall           pt00015     112.25428       0.00305       4.48344       0.63760       0.69598       0.38166       0.00000       0.39289       0.03368       2.54817       0.00000       0.00000       0.00000       0.00000       0.00000       0.00000       0.00000       0.00000  
       2         2         1      2008    recall           pt00015     112.25428       0.00305       4.48344       0.63760       0.69598       0.38166       0.00000       0.39289       0.03368       2.54817       0.00000       0.00000       0.00000       0.00000       0.00000       0.00000       0.00000       0.00000  
       3         3         1      2008    recall           pt00015     112.25428       0.00305       4.48344       0.63760       0.69598       0.38166       0.00000       0.39289       0.03368       2.54817       0.00000       0.00000       0.00000       0.00000       0.00000       0.00000       0.00000       0.00000  
       4         4         1      2008    recall           pt00015     112.25428       0.00305       4.48344       0.63760       0.69598       0.38166       0.00000       0.39289       0.03368       2.54817       0.00000       0.00000       0.00000       0.00000       0.00000       0.00000       0.00000       0.00000  
       5         5         1      2008    recall           pt00015     112.25428       0.00305       4.48344       0.63760       0.69598       0.38166       0.00000       0.39289       0.03368       2.54817       0.00000       0.00000       0.00000       0.00000       0.00000       0.00000       0.00000       0.00000  
       6         6         1      2008    recall           pt00015     112.25428       0.00305       4.48344       0.63760       0.69598       0.38166       0.00000       0.39289       0.03368       2.54817       0.00000       0.00000       0.00000       0.00000       0.00000       0.00000       0.00000       0.00000  
       7         7         1      2008    recall           pt00015     112.25428       0.00305       4.48344       0.63760       0.69598       0.38166       0.00000       0.39289       0.03368       2.54817       0.00000       0.00000       0.00000       0.00000       0.00000       0.00000       0.00000       0.00000  
       8         8         1      2008    recall           pt00015     112.25428       0.00305       4.48344       0.63760       0.69598       0.38166       0.00000       0.39289       0.03368       2.54817       0.00000       0.00000       0.00000       0.00000       0.00000       0.00000       0.00000       0.00000  
       9         9         1      2008    recall           pt00015     112.25428       0.00305       4.48344       0.63760       0.69598       0.38166       0.00000       0.39289       0.03368       2.54817       0.00000       0.00000       0.00000       0.00000       0.00000       0.00000       0.00000       0.00000  
      10        10         1      2008    recall           pt00015     112.25428       0.00305       4.48344       0.63760       0.69598       0.38166       0.00000       0.39289       0.03368       2.54817       0.00000       0.00000       0.00000       0.00000       0.00000       0.00000       0.00000       0.00000  
      11        11         1      2008    recall           pt00015     112.25428       0.00305       4.48344       0.63760       0.69598       0.38166       0.00000       0.39289       0.03368       2.54817       0.00000       0.00000       0.00000       0.00000       0.00000       0.00000       0.00000       0.00000  
      12        12         1      2008    recall           pt00015     112.25428       0.00305       4.48344       0.63760       0.69598       0.38166       0.00000       0.39289       0.03368       2.54817       0.00000       0.00000       0.00000       0.00000       0.00000       0.00000       0.00000       0.00000  
       1         1         1      2009    recall           pt00015     109.51637       0.00118       0.00000       0.00000       1.60661       0.74143       0.00000       1.97896       0.08323       0.82466       0.00000       0.00000       0.00000       0.00000       0.00000       0.00000       0.00000       0.00000  
       2         2         1      2009    recall           pt00015     109.51637       0.00118       0.00000       0.00000       1.60661       0.74143       0.00000       1.97896       0.08323       0.82466       0.00000       0.00000       0.00000       0.00000       0.00000       0.00000       0.00000       0.00000  
       3         3         1      2009    recall           pt00015     109.51637       0.00118       0.00000       0.00000       1.60661       0.74143       0.00000       1.97896       0.08323       0.82466       0.00000       0.00000       0.00000       0.00000       0.00000       0.00000       0.00000       0.00000  
       4         4         1      2009    recall           pt00015     109.51637       0.00118       0.00000       0.00000       1.60661       0.74143       0.00000       1.97896       0.08323       0.82466       0.00000       0.00000       0.00000       0.00000       0.00000       0.00000       0.00000       0.00000  
       5         5         1      2009    recall           pt00015     109.51637       0.00118       0.00000       0.00000       1.60661       0.74143       0.00000       1.97896       0.08323       0.82466       0.00000       0.00000       0.00000       0.00000       0.00000       0.00000       0.00000       0.00000  
       6         6         1      2009    recall           pt00015     109.51637       0.00118       0.00000       0.00000       1.60661       0.74143       0.00000       1.97896       0.08323       0.82466       0.00000       0.00000       0.00000       0.00000       0.00000       0.00000       0.00000       0.00000  
       7         7         1      2009    recall           pt00015     109.51637       0.00118       0.00000       0.00000       1.60661       0.74143       0.00000       1.97896       0.08323       0.82466       0.00000       0.00000       0.00000       0.00000       0.00000       0.00000       0.00000       0.00000  
       8         8         1      2009    recall           pt00015     109.51637       0.00118       0.00000       0.00000       1.60661       0.74143       0.00000       1.97896       0.08323       0.82466       0.00000       0.00000       0.00000       0.00000       0.00000       0.00000       0.00000       0.00000  
       9         9         1      2009    recall           pt00015     109.51637       0.00118       0.00000       0.00000       1.60661       0.74143       0.00000       1.97896       0.08323       0.82466       0.00000       0.00000       0.00000       0.00000       0.00000       0.00000       0.00000       0.00000  
      10        10         1      2009    recall           pt00015     109.51637       0.00118       0.00000       0.00000       1.60661       0.74143       0.00000       1.97896       0.08323       0.82466       0.00000       0.00000       0.00000       0.00000       0.00000       0.00000       0.00000       0.00000  
      11        11         1      2009    recall           pt00015     109.51637       0.00118       0.00000       0.00000       1.60661       0.74143       0.00000       1.97896       0.08323       0.82466       0.00000       0.00000       0.00000       0.00000       0.00000       0.00000       0.00000       0.00000  
      12        12         1      2009    recall           pt00015     109.51637       0.00118       0.00000       0.00000       1.60661       0.74143       0.00000       1.97896       0.08323       0.82466       0.00000       0.00000       0.00000       0.00000       0.00000       0.00000       0.00000       0.00000  
       1         1         1      2010    recall           pt00015     161.53665       0.00053       3.38624       0.77567       0.74307       0.12034       0.00000       0.31500       0.25975       2.24003       0.00000       0.00000       0.00000       0.00000       0.00000       0.00000       0.00000       0.00000  
       2         2         1      2010    recall           pt00015     161.53665       0.00053       3.38624       0.77567       0.74307       0.12034       0.00000       0.31500       0.25975       2.24003       0.00000       0.00000       0.00000       0.00000       0.00000       0.00000       0.00000       0.00000  
       3         3         1      2010    recall           pt00015     161.53665       0.00053       3.38624       0.77567       0.74307       0.12034       0.00000       0.31500       0.25975       2.24003       0.00000       0.00000       0.00000       0.00000       0.00000       0.00000       0.00000       0.00000  
       4         4         1      2010    recall           pt00015     161.53665       0.00053       3.38624       0.77567       0.74307       0.12034       0.00000       0.31500       0.25975       2.24003       0.00000       0.00000       0.00000       0.00000       0.00000       0.00000       0.00000       0.00000  
       5         5         1      2010    recall           pt00015     161.53665       0.00053       3.38624       0.77567       0.74307       0.12034       0.00000       0.31500       0.25975       2.24003       0.00000       0.00000       0.00000       0.00000       0.00000       0.00000       0.00000       0.00000  
       6         6         1      2010    recall           pt00015     161.53665       0.00053       3.38624       0.77567       0.74307       0.12034       0.00000       0.31500       0.25975       2.24003       0.00000       0.00000       0.00000       0.00000       0.00000       0.00000       0.00000       0.00000  
       7         7         1      2010    recall           pt00015     161.53665       0.00053       3.38624       0.77567       0.74307       0.12034       0.00000       0.31500       0.25975       2.24003       0.00000       0.00000       0.00000       0.00000       0.00000       0.00000       0.00000       0.00000  
       8         8         1      2010    recall           pt00015     161.53665       0.00053       3.38624       0.77567       0.74307       0.12034       0.00000       0.31500       0.25975       2.24003       0.00000       0.00000       0.00000       0.00000       0.00000       0.00000       0.00000       0.00000  
       9         9         1      2010    recall           pt00015     161.53665       0.00053       3.38624       0.77567       0.74307       0.12034       0.00000       0.31500       0.25975       2.24003       0.00000       0.00000       0.00000       0.00000       0.00000       0.00000       0.00000       0.00000  
      10        10         1      2010    recall           pt00015     161.53665       0.00053       3.38624       0.77567       0.74307       0.12034       0.00000       0.31500       0.25975       2.24003       0.00000       0.00000       0.00000       0.00000       0.00000       0.00000       0.00000       0.00000  
      11        11         1      2010    recall           pt00015     161.53665       0.00053       3.38624       0.77567       0.74307       0.12034       0.00000       0.31500       0.25975       2.24003       0.00000       0.00000       0.00000       0.00000       0.00000       0.00000       0.00000       0.00000  
      12        12         1      2010    recall           pt00015     161.53665       0.00053       3.38624       0.77567       0.74307       0.12034       0.00000       0.31500       0.25975       2.24003       0.00000       0.00000       0.00000       0.00000       0.00000       0.00000       0.00000       0.00000  
       1         1         1      2011    recall           pt00015     114.99219       0.00333       0.00000       0.35089       3.06454       0.35089       0.00000       1.25916       0.21044       1.75444       0.00000       0.00000       0.00000       0.00000       0.00000       0.00000       0.00000       0.00000  
       2         2         1      2011    recall           pt00015     114.99219       0.00333       0.00000       0.35089       3.06454       0.35089       0.00000       1.25916       0.21044       1.75444       0.00000       0.00000       0.00000       0.00000       0.00000       0.00000       0.00000       0.00000  
       3         3         1      2011    recall           pt00015     114.99219       0.00333       0.00000       0.35089       3.06454       0.35089       0.00000       1.25916       0.21044       1.75444       0.00000       0.00000       0.00000       0.00000       0.00000       0.00000       0.00000       0.00000  
       4         4         1      2011    recall           pt00015     114.99219       0.00333       0.00000       0.35089       3.06454       0.35089       0.00000       1.25916       0.21044       1.75444       0.00000       0.00000       0.00000       0.00000       0.00000       0.00000       0.00000       0.00000  
       5         5         1      2011    recall           pt00015     114.99219       0.00333       0.00000       0.35089       3.06454       0.35089       0.00000       1.25916       0.21044       1.75444       0.00000       0.00000       0.00000       0.00000       0.00000       0.00000       0.00000       0.00000  
       6         6         1      2011    recall           pt00015     114.99219       0.00333       0.00000       0.35089       3.06454       0.35089       0.00000       1.25916       0.21044       1.75444       0.00000       0.00000       0.00000       0.00000       0.00000       0.00000       0.00000       0.00000  
       7         7         1      2011    recall           pt00015     114.99219       0.00333       0.00000       0.35089       3.06454       0.35089       0.00000       1.25916       0.21044       1.75444       0.00000       0.00000       0.00000       0.00000       0.00000       0.00000       0.00000       0.00000  
       8         8         1      2011    recall           pt00015     114.99219       0.00333       0.00000       0.35089       3.06454       0.35089       0.00000       1.25916       0.21044       1.75444       0.00000       0.00000       0.00000       0.00000       0.00000       0.00000       0.00000       0.00000  
       9         9         1      2011    recall           pt00015     114.99219       0.00333       0.00000       0.35089       3.06454       0.35089       0.00000       1.25916       0.21044       1.75444       0.00000       0.00000       0.00000       0.00000       0.00000       0.00000       0.00000       0.00000  
      10        10         1      2011    recall           pt00015     114.99219       0.00333       0.00000       0.35089       3.06454       0.35089       0.00000       1.25916       0.21044       1.75444       0.00000       0.00000       0.00000       0.00000       0.00000       0.00000       0.00000       0.00000  
      11        11         1      2011    recall           pt00015     114.99219       0.00333       0.00000       0.35089       3.06454       0.35089       0.00000       1.25916       0.21044       1.75444       0.00000       0.00000       0.00000       0.00000       0.00000       0.00000       0.00000       0.00000  
      12        12         1      2011    recall           pt00015     114.99219       0.00333       0.00000       0.35089       3.06454       0.35089       0.00000       1.25916       0.21044       1.75444       0.00000       0.00000       0.00000       0.00000       0.00000       0.00000       0.00000       0.00000  
       1         1         1      2012    recall           pt00015     131.41964       0.00000       0.41397       0.19713       0.62096       0.19713       0.00000       1.03493       0.00000       0.98565       0.00000       0.00000       0.00000       0.00000       0.00000       0.00000       0.00000       0.00000  
       2         2         1      2012    recall           pt00015     131.41964       0.00000       0.41397       0.19713       0.62096       0.19713       0.00000       1.03493       0.00000       0.98565       0.00000       0.00000       0.00000       0.00000       0.00000       0.00000       0.00000       0.00000  
       3         3         1      2012    recall           pt00015     131.41964       0.00000       0.41397       0.19713       0.62096       0.19713       0.00000       1.03493       0.00000       0.98565       0.00000       0.00000       0.00000       0.00000       0.00000       0.00000       0.00000       0.00000  
       4         4         1      2012    recall           pt00015     131.41964       0.00000       0.41397       0.19713       0.62096       0.19713       0.00000       1.03493       0.00000       0.98565       0.00000       0.00000       0.00000       0.00000       0.00000       0.00000       0.00000       0.00000  
       5         5         1      2012    recall           pt00015     131.41964       0.00000       0.41397       0.19713       0.62096       0.19713       0.00000       1.03493       0.00000       0.98565       0.00000       0.00000       0.00000       0.00000       0.00000       0.00000       0.00000       0.00000  
       6         6         1      2012    recall           pt00015     131.41964       0.00000       0.41397       0.19713       0.62096       0.19713       0.00000       1.03493       0.00000       0.98565       0.00000       0.00000       0.00000       0.00000       0.00000       0.00000       0.00000       0.00000  
       7         7         1      2012    recall           pt00015     131.41964       0.00000       0.41397       0.19713       0.62096       0.19713       0.00000       1.03493       0.00000       0.98565       0.00000       0.00000       0.00000       0.00000       0.00000       0.00000       0.00000       0.00000  
       8         8         1      2012    recall           pt00015     131.41964       0.00000       0.41397       0.19713       0.62096       0.19713       0.00000       1.03493       0.00000       0.98565       0.00000       0.00000       0.00000       0.00000       0.00000       0.00000       0.00000       0.00000  
       9         9         1      2012    recall           pt00015     131.41964       0.00000       0.41397       0.19713       0.62096       0.19713       0.00000       1.03493       0.00000       0.98565       0.00000       0.00000       0.00000       0.00000       0.00000       0.00000       0.00000       0.00000  
      10        10         1      2012    recall           pt00015     131.41964       0.00000       0.41397       0.19713       0.62096       0.19713       0.00000       1.03493       0.00000       0.98565       0.00000       0.00000       0.00000       0.00000       0.00000       0.00000       0.00000       0.00000  
      11        11         1      2012    recall           pt00015     131.41964       0.00000       0.41397       0.19713       0.62096       0.19713       0.00000       1.03493       0.00000       0.98565       0.00000       0.00000       0.00000       0.00000       0.00000       0.00000       0.00000       0.00000  
      12        12         1      2012    recall           pt00015     131.41964       0.00000       0.41397       0.19713       0.62096       0.19713       0.00000       1.03493       0.00000       0.98565       0.00000       0.00000       0.00000       0.00000       0.00000       0.00000       0.00000       0.00000  
       1         1         1      2013    recall           pt00015     105.95709       0.00000       0.08274       0.03484       0.16548       0.03484       0.00000       0.57919       0.00000       0.43548       0.00000       0.00000       0.00000       0.00000       0.00000       0.00000       0.00000       0.00000  
       2         2         1      2013    recall           pt00015     105.95709       0.00000       0.08274       0.03484       0.16548       0.03484       0.00000       0.57919       0.00000       0.43548       0.00000       0.00000       0.00000       0.00000       0.00000       0.00000       0.00000       0.00000  
       3         3         1      2013    recall           pt00015     105.95709       0.00000       0.08274       0.03484       0.16548       0.03484       0.00000       0.57919       0.00000       0.43548       0.00000       0.00000       0.00000       0.00000       0.00000       0.00000       0.00000       0.00000  
       4         4         1      2013    recall           pt00015     105.95709       0.00000       0.08274       0.03484       0.16548       0.03484       0.00000       0.57919       0.00000       0.43548       0.00000       0.00000       0.00000       0.00000       0.00000       0.00000       0.00000       0.00000  
       5         5         1      2013    recall           pt00015     105.95709       0.00000       0.08274       0.03484       0.16548       0.03484       0.00000       0.57919       0.00000       0.43548       0.00000       0.00000       0.00000       0.00000       0.00000       0.00000       0.00000       0.00000  
       6         6         1      2013    recall           pt00015     105.95709       0.00000       0.08274       0.03484       0.16548       0.03484       0.00000       0.57919       0.00000       0.43548       0.00000       0.00000       0.00000       0.00000       0.00000       0.00000       0.00000       0.00000  
       7         7         1      2013    recall           pt00015     105.95709       0.00000       0.08274       0.03484       0.16548       0.03484       0.00000       0.57919       0.00000       0.43548       0.00000       0.00000       0.00000       0.00000       0.00000       0.00000       0.00000       0.00000  
       8         8         1      2013    recall           pt00015     105.95709       0.00000       0.08274       0.03484       0.16548       0.03484       0.00000       0.57919       0.00000       0.43548       0.00000       0.00000       0.00000       0.00000       0.00000       0.00000       0.00000       0.00000  
       9         9         1      2013    recall           pt00015     105.95709       0.00000       0.08274       0.03484       0.16548       0.03484       0.00000       0.57919       0.00000       0.43548       0.00000       0.00000       0.00000       0.00000       0.00000       0.00000       0.00000       0.00000  
      10        10         1      2013    recall           pt00015     105.95709       0.00000       0.08274       0.03484       0.16548       0.03484       0.00000       0.57919       0.00000       0.43548       0.00000       0.00000       0.00000       0.00000       0.00000       0.00000       0.00000       0.00000  
      11        11         1      2013    recall           pt00015     105.95709       0.00000       0.08274       0.03484       0.16548       0.03484       0.00000       0.57919       0.00000       0.43548       0.00000       0.00000       0.00000       0.00000       0.00000       0.00000       0.00000       0.00000  
      12        12         1      2013    recall           pt00015     105.95709       0.00000       0.08274       0.03484       0.16548       0.03484       0.00000       0.57919       0.00000       0.43548       0.00000       0.00000       0.00000       0.00000       0.00000       0.00000       0.00000       0.00000  
       1         1         1      2014    recall           pt00015     128.13415       0.00000       0.09641       0.04059       0.19282       0.04059       0.00000       0.67486       0.00000       0.50741       0.00000       0.00000       0.00000       0.00000       0.00000       0.00000       0.00000       0.00000  
       2         2         1      2014    recall           pt00015     128.13415       0.00000       0.09641       0.04059       0.19282       0.04059       0.00000       0.67486       0.00000       0.50741       0.00000       0.00000       0.00000       0.00000       0.00000       0.00000       0.00000       0.00000  
       3         3         1      2014    recall           pt00015     128.13415       0.00000       0.09641       0.04059       0.19282       0.04059       0.00000       0.67486       0.00000       0.50741       0.00000       0.00000       0.00000       0.00000       0.00000       0.00000       0.00000       0.00000  
       4         4         1      2014    recall           pt00015     128.13415       0.00000       0.09641       0.04059       0.19282       0.04059       0.00000       0.67486       0.00000       0.50741       0.00000       0.00000       0.00000       0.00000       0.00000       0.00000       0.00000       0.00000  
       5         5         1      2014    recall           pt00015     128.13415       0.00000       0.09641       0.04059       0.19282       0.04059       0.00000       0.67486       0.00000       0.50741       0.00000       0.00000       0.00000       0.00000       0.00000       0.00000       0.00000       0.00000  
       6         6         1      2014    recall           pt00015     128.13415       0.00000       0.09641       0.04059       0.19282       0.04059       0.00000       0.67486       0.00000       0.50741       0.00000       0.00000       0.00000       0.00000       0.00000       0.00000       0.00000       0.00000  
       7         7         1      2014    recall           pt00015     128.13415       0.00000       0.09641       0.04059       0.19282       0.04059       0.00000       0.67486       0.00000       0.50741       0.00000       0.00000       0.00000       0.00000       0.00000       0.00000       0.00000       0.00000  
       8         8         1      2014    recall           pt00015     128.13415       0.00000       0.09641       0.04059       0.19282       0.04059       0.00000       0.67486       0.00000       0.50741       0.00000       0.00000       0.00000       0.00000       0.00000       0.00000       0.00000       0.00000  
[...]
      11        11         1      2014    recall           pt00015     128.13415       0.00000       0.09641       0.04059       0.19282       0.04059       0.00000       0.67486       0.00000       0.50741       0.00000       0.00000       0.00000       0.00000       0.00000       0.00000       0.00000       0.00000  
      12        12         1      2014    recall           pt00015     128.13415       0.00000       0.09641       0.04059       0.19282       0.04059       0.00000       0.67486       0.00000       0.50741       0.00000       0.00000       0.00000       0.00000       0.00000       0.00000       0.00000       0.00000  
       1         1         1      2015    recall           pt00015     135.25272       0.00000       0.11102       0.04674       0.22203       0.04674       0.00000       0.77711       0.00000       0.58429       0.00000       0.00000       0.00000       0.00000       0.00000       0.00000       0.00000       0.00000  
       2         2         1      2015    recall           pt00015     135.25272       0.00000       0.11102       0.04674       0.22203       0.04674       0.00000       0.77711       0.00000       0.58429       0.00000       0.00000       0.00000       0.00000       0.00000       0.00000       0.00000       0.00000  
       3         3         1      2015    recall           pt00015     135.25272       0.00000       0.11102       0.04674       0.22203       0.04674       0.00000       0.77711       0.00000       0.58429       0.00000       0.00000       0.00000       0.00000       0.00000       0.00000       0.00000       0.00000  
       4         4         1      2015    recall           pt00015     135.25272       0.00000       0.11102       0.04674       0.22203       0.04674       0.00000       0.77711       0.00000       0.58429       0.00000       0.00000       0.00000       0.00000       0.00000       0.00000       0.00000       0.00000  
       5         5         1      2015    recall           pt00015     135.25272       0.00000       0.11102       0.04674       0.22203       0.04674       0.00000       0.77711       0.00000       0.58429       0.00000       0.00000       0.00000       0.00000       0.00000       0.00000       0.00000       0.00000  
       6         6         1      2015    recall           pt00015     135.25272       0.00000       0.11102       0.04674       0.22203       0.04674       0.00000       0.77711       0.00000       0.58429       0.00000       0.00000       0.00000       0.00000       0.00000       0.00000       0.00000       0.00000  
       7         7         1      2015    recall           pt00015     135.25272       0.00000       0.11102       0.04674       0.22203       0.04674       0.00000       0.77711       0.00000       0.58429       0.00000       0.00000       0.00000       0.00000       0.00000       0.00000       0.00000       0.00000  
       8         8         1      2015    recall           pt00015     135.25272       0.00000       0.11102       0.04674       0.22203       0.04674       0.00000       0.77711       0.00000       0.58429       0.00000       0.00000       0.00000       0.00000       0.00000       0.00000       0.00000       0.00000  
       9         9         1      2015    recall           pt00015     135.25272       0.00000       0.11102       0.04674       0.22203       0.04674       0.00000       0.77711       0.00000       0.58429       0.00000       0.00000       0.00000       0.00000       0.00000       0.00000       0.00000       0.00000  
      10        10         1      2015    recall           pt00015     135.25272       0.00000       0.11102       0.04674       0.22203       0.04674       0.00000       0.77711       0.00000       0.58429       0.00000       0.00000       0.00000       0.00000       0.00000       0.00000       0.00000       0.00000  
      11        11         1      2015    recall           pt00015     135.25272       0.00000       0.11102       0.04674       0.22203       0.04674       0.00000       0.77711       0.00000       0.58429       0.00000       0.00000       0.00000       0.00000       0.00000       0.00000       0.00000       0.00000  
      12        12         1      2015    recall           pt00015     135.25272       0.00000       0.11102       0.04674       0.22203       0.04674       0.00000       0.77711       0.00000       0.58429       0.00000       0.00000       0.00000       0.00000       0.00000       0.00000       0.00000       0.00000  
       1         1         1      2016    recall           pt00015     163.72697       0.00000       0.09395       0.03956       0.18789       0.03956       0.00000       0.65763       0.00000       0.49446       0.00000       0.00000       0.00000       0.00000       0.00000       0.00000       0.00000       0.00000  
       2         2         1      2016    recall           pt00015     163.72697       0.00000       0.09395       0.03956       0.18789       0.03956       0.00000       0.65763       0.00000       0.49446       0.00000       0.00000       0.00000       0.00000       0.00000       0.00000       0.00000       0.00000  
       3         3         1      2016    recall           pt00015     163.72697       0.00000       0.09395       0.03956       0.18789       0.03956       0.00000       0.65763       0.00000       0.49446       0.00000       0.00000       0.00000       0.00000       0.00000       0.00000       0.00000       0.00000  
       4         4         1      2016    recall           pt00015     163.72697       0.00000       0.09395       0.03956       0.18789       0.03956       0.00000       0.65763       0.00000       0.49446       0.00000       0.00000       0.00000       0.00000       0.00000       0.00000       0.00000       0.00000  
       5         5         1      2016    recall           pt00015     163.72697       0.00000       0.09395       0.03956       0.18789       0.03956       0.00000       0.65763       0.00000       0.49446       0.00000       0.00000       0.00000       0.00000       0.00000       0.00000       0.00000       0.00000  
       6         6         1      2016    recall           pt00015     163.72697       0.00000       0.09395       0.03956       0.18789       0.03956       0.00000       0.65763       0.00000       0.49446       0.00000       0.00000       0.00000       0.00000       0.00000       0.00000       0.00000       0.00000  
       7         7         1      2016    recall           pt00015     163.72697       0.00000       0.09395       0.03956       0.18789       0.03956       0.00000       0.65763       0.00000       0.49446       0.00000       0.00000       0.00000       0.00000       0.00000       0.00000       0.00000       0.00000  
       8         8         1      2016    recall           pt00015     163.72697       0.00000       0.09395       0.03956       0.18789       0.03956       0.00000       0.65763       0.00000       0.49446       0.00000       0.00000       0.00000       0.00000       0.00000       0.00000       0.00000       0.00000  
       9         9         1      2016    recall           pt00015     163.72697       0.00000       0.09395       0.03956       0.18789       0.03956       0.00000       0.65763       0.00000       0.49446       0.00000       0.00000       0.00000       0.00000       0.00000       0.00000       0.00000       0.00000  
      10        10         1      2016    recall           pt00015     163.72697       0.00000       0.09395       0.03956       0.18789       0.03956       0.00000       0.65763       0.00000       0.49446       0.00000       0.00000       0.00000       0.00000       0.00000       0.00000       0.00000       0.00000  
      11        11         1      2016    recall           pt00015     163.72697       0.00000       0.09395       0.03956       0.18789       0.03956       0.00000       0.65763       0.00000       0.49446       0.00000       0.00000       0.00000       0.00000       0.00000       0.00000       0.00000       0.00000  
      12        12         1      2016    recall           pt00015     163.72697       0.00000       0.09395       0.03956       0.18789       0.03956       0.00000       0.65763       0.00000       0.49446       0.00000       0.00000       0.00000       0.00000       0.00000       0.00000       0.00000       0.00000  
       1         1         1      2017    recall           pt00015     243.12634       0.00000       0.22635       0.09531       0.45270       0.09531       0.00000       1.58445       0.00000       1.19132       0.00000       0.00000       0.00000       0.00000       0.00000       0.00000       0.00000       0.00000  
       2         2         1      2017    recall           pt00015     243.12634       0.00000       0.22635       0.09531       0.45270       0.09531       0.00000       1.58445       0.00000       1.19132       0.00000       0.00000       0.00000       0.00000       0.00000       0.00000       0.00000       0.00000  
       3         3         1      2017    recall           pt00015     243.12634       0.00000       0.22635       0.09531       0.45270       0.09531       0.00000       1.58445       0.00000       1.19132       0.00000       0.00000       0.00000       0.00000       0.00000       0.00000       0.00000       0.00000  
       4         4         1      2017    recall           pt00015     243.12634       0.00000       0.22635       0.09531       0.45270       0.09531       0.00000       1.58445       0.00000       1.19132       0.00000       0.00000       0.00000       0.00000       0.00000       0.00000       0.00000       0.00000  
       5         5         1      2017    recall           pt00015     243.12634       0.00000       0.22635       0.09531       0.45270       0.09531       0.00000       1.58445       0.00000       1.19132       0.00000       0.00000       0.00000       0.00000       0.00000       0.00000       0.00000       0.00000  
       6         6         1      2017    recall           pt00015     243.12634       0.00000       0.22635       0.09531       0.45270       0.09531       0.00000       1.58445       0.00000       1.19132       0.00000       0.00000       0.00000       0.00000       0.00000       0.00000       0.00000       0.00000  
       7         7         1      2017    recall           pt00015     243.12634       0.00000       0.22635       0.09531       0.45270       0.09531       0.00000       1.58445       0.00000       1.19132       0.00000       0.00000       0.00000       0.00000       0.00000       0.00000       0.00000       0.00000  
       8         8         1      2017    recall           pt00015     243.12634       0.00000       0.22635       0.09531       0.45270       0.09531       0.00000       1.58445       0.00000       1.19132       0.00000       0.00000       0.00000       0.00000       0.00000       0.00000       0.00000       0.00000  
       9         9         1      2017    recall           pt00015     243.12634       0.00000       0.22635       0.09531       0.45270       0.09531       0.00000       1.58445       0.00000       1.19132       0.00000       0.00000       0.00000       0.00000       0.00000       0.00000       0.00000       0.00000  
      10        10         1      2017    recall           pt00015     243.12634       0.00000       0.22635       0.09531       0.45270       0.09531       0.00000       1.58445       0.00000       1.19132       0.00000       0.00000       0.00000       0.00000       0.00000       0.00000       0.00000       0.00000  
      11        11         1      2017    recall           pt00015     243.12634       0.00000       0.22635       0.09531       0.45270       0.09531       0.00000       1.58445       0.00000       1.19132       0.00000       0.00000       0.00000       0.00000       0.00000       0.00000       0.00000       0.00000  
      12        12         1      2017    recall           pt00015     243.12634       0.00000       0.22635       0.09531       0.45270       0.09531       0.00000       1.58445       0.00000       1.19132       0.00000       0.00000       0.00000       0.00000       0.00000       0.00000       0.00000       0.00000  
       1         1         1      2018    recall           pt00015     185.63025       0.00000       0.15621       0.06577       0.31242       0.06577       0.00000       1.09347       0.00000       0.82216       0.00000       0.00000       0.00000       0.00000       0.00000       0.00000       0.00000       0.00000  
       2         2         1      2018    recall           pt00015     185.63025       0.00000       0.15621       0.06577       0.31242       0.06577       0.00000       1.09347       0.00000       0.82216       0.00000       0.00000       0.00000       0.00000       0.00000       0.00000       0.00000       0.00000  
       3         3         1      2018    recall           pt00015     185.63025       0.00000       0.15621       0.06577       0.31242       0.06577       0.00000       1.09347       0.00000       0.82216       0.00000       0.00000       0.00000       0.00000       0.00000       0.00000       0.00000       0.00000  
       4         4         1      2018    recall           pt00015     185.63025       0.00000       0.15621       0.06577       0.31242       0.06577       0.00000       1.09347       0.00000       0.82216       0.00000       0.00000       0.00000       0.00000       0.00000       0.00000       0.00000       0.00000  
       5         5         1      2018    recall           pt00015     185.63025       0.00000       0.15621       0.06577       0.31242       0.06577       0.00000       1.09347       0.00000       0.82216       0.00000       0.00000       0.00000       0.00000       0.00000       0.00000       0.00000       0.00000  
       6         6         1      2018    recall           pt00015     185.63025       0.00000       0.15621       0.06577       0.31242       0.06577       0.00000       1.09347       0.00000       0.82216       0.00000       0.00000       0.00000       0.00000       0.00000       0.00000       0.00000       0.00000  
       7         7         1      2018    recall           pt00015     185.63025       0.00000       0.15621       0.06577       0.31242       0.06577       0.00000       1.09347       0.00000       0.82216       0.00000       0.00000       0.00000       0.00000       0.00000       0.00000       0.00000       0.00000  
       8         8         1      2018    recall           pt00015     185.63025       0.00000       0.15621       0.06577       0.31242       0.06577       0.00000       1.09347       0.00000       0.82216       0.00000       0.00000       0.00000       0.00000       0.00000       0.00000       0.00000       0.00000  
       9         9         1      2018    recall           pt00015     185.63025       0.00000       0.15621       0.06577       0.31242       0.06577       0.00000       1.09347       0.00000       0.82216       0.00000       0.00000       0.00000       0.00000       0.00000       0.00000       0.00000       0.00000  
      10        10         1      2018    recall           pt00015     185.63025       0.00000       0.15621       0.06577       0.31242       0.06577       0.00000       1.09347       0.00000       0.82216       0.00000       0.00000       0.00000       0.00000       0.00000       0.00000       0.00000       0.00000  
      11        11         1      2018    recall           pt00015     185.63025       0.00000       0.15621       0.06577       0.31242       0.06577       0.00000       1.09347       0.00000       0.82216       0.00000       0.00000       0.00000       0.00000       0.00000       0.00000       0.00000       0.00000  
      12        12         1      2018    recall           pt00015     185.63025       0.00000       0.15621       0.06577       0.31242       0.06577       0.00000       1.09347       0.00000       0.82216       0.00000       0.00000       0.00000       0.00000       0.00000       0.00000       0.00000       0.00000  
       1         1         1      2019    recall           pt00015     167.35470       0.00000       0.20306       0.08550       0.40612       0.08550       0.00000       1.42141       0.00000       1.06873       0.00000       0.00000       0.00000       0.00000       0.00000       0.00000       0.00000       0.00000  
       2         2         1      2019    recall           pt00015     167.35470       0.00000       0.20306       0.08550       0.40612       0.08550       0.00000       1.42141       0.00000       1.06873       0.00000       0.00000       0.00000       0.00000       0.00000       0.00000       0.00000       0.00000  
       3         3         1      2019    recall           pt00015     167.35470       0.00000       0.20306       0.08550       0.40612       0.08550       0.00000       1.42141       0.00000       1.06873       0.00000       0.00000       0.00000       0.00000       0.00000       0.00000       0.00000       0.00000  
       4         4         1      2019    recall           pt00015     167.35470       0.00000       0.20306       0.08550       0.40612       0.08550       0.00000       1.42141       0.00000       1.06873       0.00000       0.00000       0.00000       0.00000       0.00000       0.00000       0.00000       0.00000  
       5         5         1      2019    recall           pt00015     167.35470       0.00000       0.20306       0.08550       0.40612       0.08550       0.00000       1.42141       0.00000       1.06873       0.00000       0.00000       0.00000       0.00000       0.00000       0.00000       0.00000       0.00000  
       6         6         1      2019    recall           pt00015     167.35470       0.00000       0.20306       0.08550       0.40612       0.08550       0.00000       1.42141       0.00000       1.06873       0.00000       0.00000       0.00000       0.00000       0.00000       0.00000       0.00000       0.00000  
       7         7         1      2019    recall           pt00015     167.35470       0.00000       0.20306       0.08550       0.40612       0.08550       0.00000       1.42141       0.00000       1.06873       0.00000       0.00000       0.00000       0.00000       0.00000       0.00000       0.00000       0.00000  
       8         8         1      2019    recall           pt00015     167.35470       0.00000       0.20306       0.08550       0.40612       0.08550       0.00000       1.42141       0.00000       1.06873       0.00000       0.00000       0.00000       0.00000       0.00000       0.00000       0.00000       0.00000  
       9         9         1      2019    recall           pt00015     167.35470       0.00000       0.20306       0.08550       0.40612       0.08550       0.00000       1.42141       0.00000       1.06873       0.00000       0.00000       0.00000       0.00000       0.00000       0.00000       0.00000       0.00000  
      10        10         1      2019    recall           pt00015     167.35470       0.00000       0.20306       0.08550       0.40612       0.08550       0.00000       1.42141       0.00000       1.06873       0.00000       0.00000       0.00000       0.00000       0.00000       0.00000       0.00000       0.00000  
      11        11         1      2019    recall           pt00015     167.35470       0.00000       0.20306       0.08550       0.40612       0.08550       0.00000       1.42141       0.00000       1.06873       0.00000       0.00000       0.00000       0.00000       0.00000       0.00000       0.00000       0.00000  
      12        12         1      2019    recall           pt00015     167.35470       0.00000       0.20306       0.08550       0.40612       0.08550       0.00000       1.42141       0.00000       1.06873       0.00000       0.00000       0.00000       0.00000       0.00000       0.00000       0.00000       0.00000  
