recall.rec: written by SWAT+ editor v2.0.0 on 2022-02-14 13:07
26
    jday        mo    day_mo       iyr    ob_typ           ob_name           flo           sed         ptl_n         ptl_p         no3_n         sol_p          chla         nh3_n         no2_n       cbn_bod           oxy          sand          silt          clay        sm_agg        lg_agg        gravel           tmp  
       1         1         1      1994    recall           pt00008       0.00000       0.00000       0.00000       0.00000       0.00000       0.00000       0.00000       0.00000       0.00000       0.00000       0.00000       0.00000       0.00000       0.00000       0.00000       0.00000       0.00000       0.00000  
       2         2         1      1994    recall           pt00008       0.00000       0.00000       0.00000       0.00000       0.00000       0.00000       0.00000       0.00000       0.00000       0.00000       0.00000       0.00000       0.00000       0.00000       0.00000       0.00000       0.00000       0.00000  
       3         3         1      1994    recall           pt00008       0.00000       0.00000       0.00000       0.00000       0.00000       0.00000       0.00000       0.00000       0.00000       0.00000       0.00000       0.00000       0.00000       0.00000       0.00000       0.00000       0.00000       0.00000  
       4         4         1      1994    recall           pt00008       0.00000       0.00000       0.00000       0.00000       0.00000       0.00000       0.00000       0.00000       0.00000       0.00000       0.00000       0.00000       0.00000       0.00000       0.00000       0.00000       0.00000       0.00000  
       5         5         1      1994    recall           pt00008       0.00000       0.00000       0.00000       0.00000       0.00000       0.00000       0.00000       0.00000       0.00000       0.00000       0.00000       0.00000       0.00000       0.00000       0.00000       0.00000       0.00000       0.00000  
       6         6         1      1994    recall           pt00008       0.00000       0.00000       0.00000       0.00000       0.00000       0.00000       0.00000       0.00000       0.00000       0.00000       0.00000       0.00000       0.00000       0.00000       0.00000       0.00000       0.00000       0.00000  
       7         7         1      1994    recall           pt00008       0.00000       0.00000       0.00000       0.00000       0.00000       0.00000       0.00000       0.00000       0.00000       0.00000       0.00000       0.00000       0.00000       0.00000       0.00000       0.00000       0.00000       0.00000  
       8         8         1      1994    recall           pt00008       0.00000       0.00000       0.00000       0.00000       0.00000       0.00000       0.00000       0.00000       0.00000       0.00000       0.00000       0.00000       0.00000       0.00000       0.00000       0.00000       0.00000       0.00000  
       9         9         1      1994    recall           pt00008       0.00000       0.00000       0.00000       0.00000       0.00000       0.00000       0.00000       0.00000       0.00000       0.00000       0.00000       0.00000       0.00000       0.00000       0.00000       0.00000       0.00000       0.00000  
      10        10         1      1994    recall           pt00008       0.00000       0.00000       0.00000       0.00000       0.00000       0.00000       0.00000       0.00000       0.00000       0.00000       0.00000       0.00000       0.00000       0.00000       0.00000       0.00000       0.00000       0.00000  
      11        11         1      1994    recall           pt00008       0.00000       0.00000       0.00000       0.00000       0.00000       0.00000       0.00000       0.00000       0.00000       0.00000       0.00000       0.00000       0.00000       0.00000       0.00000       0.00000       0.00000       0.00000  
      12        12         1      1994    recall           pt00008       0.00000       0.00000       0.00000       0.00000       0.00000       0.00000       0.00000       0.00000       0.00000       0.00000       0.00000       0.00000       0.00000       0.00000       0.00000       0.00000       0.00000       0.00000  
       1         1         1      1995    recall           pt00008       0.00000       0.00000       0.00000       0.00000       0.00000       0.00000       0.00000       0.00000       0.00000       0.00000       0.00000       0.00000       0.00000       0.00000       0.00000       0.00000       0.00000       0.00000  
       2         2         1      1995    recall           pt00008       0.00000       0.00000       0.00000       0.00000       0.00000       0.00000       0.00000       0.00000       0.00000       0.00000       0.00000       0.00000       0.00000       0.00000       0.00000       0.00000       0.00000       0.00000  
       3         3         1      1995    recall           pt00008       0.00000       0.00000       0.00000       0.00000       0.00000       0.00000       0.00000       0.00000       0.00000       0.00000       0.00000       0.00000       0.00000       0.00000       0.00000       0.00000       0.00000       0.00000  
       4         4         1      1995    recall           pt00008       0.00000       0.00000       0.00000       0.00000       0.00000       0.00000       0.00000       0.00000       0.00000       0.00000       0.00000       0.00000       0.00000       0.00000       0.00000       0.00000       0.00000       0.00000  
       5         5         1      1995    recall           pt00008       0.00000       0.00000       0.00000       0.00000       0.00000       0.00000       0.00000       0.00000       0.00000       0.00000       0.00000       0.00000       0.00000       0.00000       0.00000       0.00000       0.00000       0.00000  
       6         6         1      1995    recall           pt00008       0.00000       0.00000       0.00000       0.00000       0.00000       0.00000       0.00000       0.00000       0.00000       0.00000       0.00000       0.00000       0.00000       0.00000       0.00000       0.00000       0.00000       0.00000  
       7         7         1      1995    recall           pt00008       0.00000       0.00000       0.00000       0.00000       0.00000       0.00000       0.00000       0.00000       0.00000       0.00000       0.00000       0.00000       0.00000       0.00000       0.00000       0.00000       0.00000       0.00000  
       8         8         1      1995    recall           pt00008       0.00000       0.00000       0.00000       0.00000       0.00000       0.00000       0.00000       0.00000       0.00000       0.00000       0.00000       0.00000       0.00000       0.00000       0.00000       0.00000       0.00000       0.00000  
       9         9         1      1995    recall           pt00008       0.00000       0.00000       0.00000       0.00000       0.00000       0.00000       0.00000       0.00000       0.00000       0.00000       0.00000       0.00000       0.00000       0.00000       0.00000       0.00000       0.00000       0.00000  
      10        10         1      1995    recall           pt00008       0.00000       0.00000       0.00000       0.00000       0.00000       0.00000       0.00000       0.00000       0.00000       0.00000       0.00000       0.00000       0.00000       0.00000       0.00000       0.00000       0.00000       0.00000  
      11        11         1      1995    recall           pt00008       0.00000       0.00000       0.00000       0.00000       0.00000       0.00000       0.00000       0.00000       0.00000       0.00000       0.00000       0.00000       0.00000       0.00000       0.00000       0.00000       0.00000       0.00000  
      12        12         1      1995    recall           pt00008       0.00000       0.00000       0.00000       0.00000       0.00000       0.00000       0.00000       0.00000       0.00000       0.00000       0.00000       0.00000       0.00000       0.00000       0.00000       0.00000       0.00000       0.00000  
       1         1         1      1996    recall           pt00008       0.00000       0.00000       0.00000       0.00000       0.00000       0.00000       0.00000       0.00000       0.00000       0.00000       0.00000       0.00000       0.00000       0.00000       0.00000       0.00000       0.00000       0.00000  
       2         2         1      1996    recall           pt00008       0.00000       0.00000       0.00000       0.00000       0.00000       0.00000       0.00000       0.00000       0.00000       0.00000       0.00000       0.00000       0.00000       0.00000       0.00000       0.00000       0.00000       0.00000  
       3         3         1      1996    recall           pt00008       0.00000       0.00000       0.00000       0.00000       0.00000       0.00000       0.00000       0.00000       0.00000       0.00000       0.00000       0.00000       0.00000       0.00000       0.00000       0.00000       0.00000       0.00000  
       4         4         1      1996    recall           pt00008       0.00000       0.00000       0.00000       0.00000       0.00000       0.00000       0.00000       0.00000       0.00000       0.00000       0.00000       0.00000       0.00000       0.00000       0.00000       0.00000       0.00000       0.00000  
       5         5         1      1996    recall           pt00008       0.00000       0.00000       0.00000       0.00000       0.00000       0.00000       0.00000       0.00000       0.00000       0.00000       0.00000       0.00000       0.00000       0.00000       0.00000       0.00000       0.00000       0.00000  
       6         6         1      1996    recall           pt00008       0.00000       0.00000       0.00000       0.00000       0.00000       0.00000       0.00000       0.00000       0.00000       0.00000       0.00000       0.00000       0.00000       0.00000       0.00000       0.00000       0.00000       0.00000  
       7         7         1      1996    recall           pt00008       0.00000       0.00000       0.00000       0.00000       0.00000       0.00000       0.00000       0.00000       0.00000       0.00000       0.00000       0.00000       0.00000       0.00000       0.00000       0.00000       0.00000       0.00000  
       8         8         1      1996    recall           pt00008       0.00000       0.00000       0.00000       0.00000       0.00000       0.00000       0.00000       0.00000       0.00000       0.00000       0.00000       0.00000       0.00000       0.00000       0.00000       0.00000       0.00000       0.00000  
       9         9         1      1996    recall           pt00008       0.00000       0.00000       0.00000       0.00000       0.00000       0.00000       0.00000       0.00000       0.00000       0.00000       0.00000       0.00000       0.00000       0.00000       0.00000       0.00000       0.00000       0.00000  
      10        10         1      1996    recall           pt00008       0.00000       0.00000       0.00000       0.00000       0.00000       0.00000       0.00000       0.00000       0.00000       0.00000       0.00000       0.00000       0.00000       0.00000       0.00000       0.00000       0.00000       0.00000  
      11        11         1      1996    recall           pt00008       0.00000       0.00000       0.00000       0.00000       0.00000       0.00000       0.00000       0.00000       0.00000       0.00000       0.00000       0.00000       0.00000       0.00000       0.00000       0.00000       0.00000       0.00000  
      12        12         1      1996    recall           pt00008       0.00000       0.00000       0.00000       0.00000       0.00000       0.00000       0.00000       0.00000       0.00000       0.00000       0.00000       0.00000       0.00000       0.00000       0.00000       0.00000       0.00000       0.00000  
       1         1         1      1997    recall           pt00008      54.75819       0.00142       1.46916       0.40874       0.04216       0.05421       0.00000       1.01850       0.01643       1.15739       0.00000       0.00000       0.00000       0.00000       0.00000       0.00000       0.00000       0.00000  
       2         2         1      1997    recall           pt00008      54.75819       0.00142       1.46916       0.40874       0.04216       0.05421       0.00000       1.01850       0.01643       1.15739       0.00000       0.00000       0.00000       0.00000       0.00000       0.00000       0.00000       0.00000  
       3         3         1      1997    recall           pt00008      54.75819       0.00142       1.46916       0.40874       0.04216       0.05421       0.00000       1.01850       0.01643       1.15739       0.00000       0.00000       0.00000       0.00000       0.00000       0.00000       0.00000       0.00000  
       4         4         1      1997    recall           pt00008      54.75819       0.00142       1.46916       0.40874       0.04216       0.05421       0.00000       1.01850       0.01643       1.15739       0.00000       0.00000       0.00000       0.00000       0.00000       0.00000       0.00000       0.00000  
       5         5         1      1997    recall           pt00008      54.75819       0.00142       1.46916       0.40874       0.04216       0.05421       0.00000       1.01850       0.01643       1.15739       0.00000       0.00000       0.00000       0.00000       0.00000       0.00000       0.00000       0.00000  
       6         6         1      1997    recall           pt00008      54.75819       0.00142       1.46916       0.40874       0.04216       0.05421       0.00000       1.01850       0.01643       1.15739       0.00000       0.00000       0.00000       0.00000       0.00000       0.00000       0.00000       0.00000  
       7         7         1      1997    recall           pt00008      54.75819       0.00142       1.46916       0.40874       0.04216       0.05421       0.00000       1.01850       0.01643       1.15739       0.00000       0.00000       0.00000       0.00000       0.00000       0.00000       0.00000       0.00000  
       8         8         1      1997    recall           pt00008      54.75819       0.00142       1.46916       0.40874       0.04216       0.05421       0.00000       1.01850       0.01643       1.15739       0.00000       0.00000       0.00000       0.00000       0.00000       0.00000       0.00000       0.00000  
       9         9         1      1997    recall           pt00008      54.75819       0.00142       1.46916       0.40874       0.04216       0.05421       0.00000       1.01850       0.01643       1.15739       0.00000       0.00000       0.00000       0.00000       0.00000       0.00000       0.00000       0.00000  
      10        10         1      1997    recall           pt00008      54.75819       0.00142       1.46916       0.40874       0.04216       0.05421       0.00000       1.01850       0.01643       1.15739       0.00000       0.00000       0.00000       0.00000       0.00000       0.00000       0.00000       0.00000  
      11        11         1      1997    recall           pt00008      54.75819       0.00142       1.46916       0.40874       0.04216       0.05421       0.00000       1.01850       0.01643       1.15739       0.00000       0.00000       0.00000       0.00000       0.00000       0.00000       0.00000       0.00000  
      12        12         1      1997    recall           pt00008      54.75819       0.00142       1.46916       0.40874       0.04216       0.05421       0.00000       1.01850       0.01643       1.15739       0.00000       0.00000       0.00000       0.00000       0.00000       0.00000       0.00000       0.00000  
       1         1         1      1998    recall           pt00008      54.75819       0.00093       0.85094       0.36798       0.02738       0.02190       0.00000       1.25944       0.00657       0.97470       0.00000       0.00000       0.00000       0.00000       0.00000       0.00000       0.00000       0.00000  
       2         2         1      1998    recall           pt00008      54.75819       0.00093       0.85094       0.36798       0.02738       0.02190       0.00000       1.25944       0.00657       0.97470       0.00000       0.00000       0.00000       0.00000       0.00000       0.00000       0.00000       0.00000  
       3         3         1      1998    recall           pt00008      54.75819       0.00093       0.85094       0.36798       0.02738       0.02190       0.00000       1.25944       0.00657       0.97470       0.00000       0.00000       0.00000       0.00000       0.00000       0.00000       0.00000       0.00000  
       4         4         1      1998    recall           pt00008      54.75819       0.00093       0.85094       0.36798       0.02738       0.02190       0.00000       1.25944       0.00657       0.97470       0.00000       0.00000       0.00000       0.00000       0.00000       0.00000       0.00000       0.00000  
       5         5         1      1998    recall           pt00008      54.75819       0.00093       0.85094       0.36798       0.02738       0.02190       0.00000       1.25944       0.00657       0.97470       0.00000       0.00000       0.00000       0.00000       0.00000       0.00000       0.00000       0.00000  
       6         6         1      1998    recall           pt00008      54.75819       0.00093       0.85094       0.36798       0.02738       0.02190       0.00000       1.25944       0.00657       0.97470       0.00000       0.00000       0.00000       0.00000       0.00000       0.00000       0.00000       0.00000  
       7         7         1      1998    recall           pt00008      54.75819       0.00093       0.85094       0.36798       0.02738       0.02190       0.00000       1.25944       0.00657       0.97470       0.00000       0.00000       0.00000       0.00000       0.00000       0.00000       0.00000       0.00000  
       8         8         1      1998    recall           pt00008      54.75819       0.00093       0.85094       0.36798       0.02738       0.02190       0.00000       1.25944       0.00657       0.97470       0.00000       0.00000       0.00000       0.00000       0.00000       0.00000       0.00000       0.00000  
       9         9         1      1998    recall           pt00008      54.75819       0.00093       0.85094       0.36798       0.02738       0.02190       0.00000       1.25944       0.00657       0.97470       0.00000       0.00000       0.00000       0.00000       0.00000       0.00000       0.00000       0.00000  
      10        10         1      1998    recall           pt00008      54.75819       0.00093       0.85094       0.36798       0.02738       0.02190       0.00000       1.25944       0.00657       0.97470       0.00000       0.00000       0.00000       0.00000       0.00000       0.00000       0.00000       0.00000  
      11        11         1      1998    recall           pt00008      54.75819       0.00093       0.85094       0.36798       0.02738       0.02190       0.00000       1.25944       0.00657       0.97470       0.00000       0.00000       0.00000       0.00000       0.00000       0.00000       0.00000       0.00000  
      12        12         1      1998    recall           pt00008      54.75819       0.00093       0.85094       0.36798       0.02738       0.02190       0.00000       1.25944       0.00657       0.97470       0.00000       0.00000       0.00000       0.00000       0.00000       0.00000       0.00000       0.00000  
       1         1         1      1999    recall           pt00008      54.75819       0.00057       0.00000       0.13361       0.07119       0.10952       0.00000       1.69750       0.07995       0.60782       0.00000       0.00000       0.00000       0.00000       0.00000       0.00000       0.00000       0.00000  
       2         2         1      1999    recall           pt00008      54.75819       0.00057       0.00000       0.13361       0.07119       0.10952       0.00000       1.69750       0.07995       0.60782       0.00000       0.00000       0.00000       0.00000       0.00000       0.00000       0.00000       0.00000  
       3         3         1      1999    recall           pt00008      54.75819       0.00057       0.00000       0.13361       0.07119       0.10952       0.00000       1.69750       0.07995       0.60782       0.00000       0.00000       0.00000       0.00000       0.00000       0.00000       0.00000       0.00000  
       4         4         1      1999    recall           pt00008      54.75819       0.00057       0.00000       0.13361       0.07119       0.10952       0.00000       1.69750       0.07995       0.60782       0.00000       0.00000       0.00000       0.00000       0.00000       0.00000       0.00000       0.00000  
       5         5         1      1999    recall           pt00008      54.75819       0.00057       0.00000       0.13361       0.07119       0.10952       0.00000       1.69750       0.07995       0.60782       0.00000       0.00000       0.00000       0.00000       0.00000       0.00000       0.00000       0.00000  
       6         6         1      1999    recall           pt00008      54.75819       0.00057       0.00000       0.13361       0.07119       0.10952       0.00000       1.69750       0.07995       0.60782       0.00000       0.00000       0.00000       0.00000       0.00000       0.00000       0.00000       0.00000  
       7         7         1      1999    recall           pt00008      54.75819       0.00057       0.00000       0.13361       0.07119       0.10952       0.00000       1.69750       0.07995       0.60782       0.00000       0.00000       0.00000       0.00000       0.00000       0.00000       0.00000       0.00000  
       8         8         1      1999    recall           pt00008      54.75819       0.00057       0.00000       0.13361       0.07119       0.10952       0.00000       1.69750       0.07995       0.60782       0.00000       0.00000       0.00000       0.00000       0.00000       0.00000       0.00000       0.00000  
       9         9         1      1999    recall           pt00008      54.75819       0.00057       0.00000       0.13361       0.07119       0.10952       0.00000       1.69750       0.07995       0.60782       0.00000       0.00000       0.00000       0.00000       0.00000       0.00000       0.00000       0.00000  
      10        10         1      1999    recall           pt00008      54.75819       0.00057       0.00000       0.13361       0.07119       0.10952       0.00000       1.69750       0.07995       0.60782       0.00000       0.00000       0.00000       0.00000       0.00000       0.00000       0.00000       0.00000  
      11        11         1      1999    recall           pt00008      54.75819       0.00057       0.00000       0.13361       0.07119       0.10952       0.00000       1.69750       0.07995       0.60782       0.00000       0.00000       0.00000       0.00000       0.00000       0.00000       0.00000       0.00000  
      12        12         1      1999    recall           pt00008      54.75819       0.00057       0.00000       0.13361       0.07119       0.10952       0.00000       1.69750       0.07995       0.60782       0.00000       0.00000       0.00000       0.00000       0.00000       0.00000       0.00000       0.00000  
       1         1         1      2000    recall           pt00008      54.75819       0.00060       0.48790       0.16427       0.18180       0.16427       0.00000       1.04041       0.09692       0.82137       0.00000       0.00000       0.00000       0.00000       0.00000       0.00000       0.00000       0.00000  
       2         2         1      2000    recall           pt00008      54.75819       0.00060       0.48790       0.16427       0.18180       0.16427       0.00000       1.04041       0.09692       0.82137       0.00000       0.00000       0.00000       0.00000       0.00000       0.00000       0.00000       0.00000  
       3         3         1      2000    recall           pt00008      54.75819       0.00060       0.48790       0.16427       0.18180       0.16427       0.00000       1.04041       0.09692       0.82137       0.00000       0.00000       0.00000       0.00000       0.00000       0.00000       0.00000       0.00000  
       4         4         1      2000    recall           pt00008      54.75819       0.00060       0.48790       0.16427       0.18180       0.16427       0.00000       1.04041       0.09692       0.82137       0.00000       0.00000       0.00000       0.00000       0.00000       0.00000       0.00000       0.00000  
       5         5         1      2000    recall           pt00008      54.75819       0.00060       0.48790       0.16427       0.18180       0.16427       0.00000       1.04041       0.09692       0.82137       0.00000       0.00000       0.00000       0.00000       0.00000       0.00000       0.00000       0.00000  
       6         6         1      2000    recall           pt00008      54.75819       0.00060       0.48790       0.16427       0.18180       0.16427       0.00000       1.04041       0.09692       0.82137       0.00000       0.00000       0.00000       0.00000       0.00000       0.00000       0.00000       0.00000  
       7         7         1      2000    recall           pt00008      54.75819       0.00060       0.48790       0.16427       0.18180       0.16427       0.00000       1.04041       0.09692       0.82137       0.00000       0.00000       0.00000       0.00000       0.00000       0.00000       0.00000       0.00000  
       8         8         1      2000    recall           pt00008      54.75819       0.00060       0.48790       0.16427       0.18180       0.16427       0.00000       1.04041       0.09692       0.82137       0.00000       0.00000       0.00000       0.00000       0.00000       0.00000       0.00000       0.00000  
       9         9         1      2000    recall           pt00008      54.75819       0.00060       0.48790       0.16427       0.18180       0.16427       0.00000       1.04041       0.09692       0.82137       0.00000       0.00000       0.00000       0.00000       0.00000       0.00000       0.00000       0.00000  
      10        10         1      2000    recall           pt00008      54.75819       0.00060       0.48790       0.16427       0.18180       0.16427       0.00000       1.04041       0.09692       0.82137       0.00000       0.00000       0.00000       0.00000       0.00000       0.00000       0.00000       0.00000  
      11        11         1      2000    recall           pt00008      54.75819       0.00060       0.48790       0.16427       0.18180       0.16427       0.00000       1.04041       0.09692       0.82137       0.00000       0.00000       0.00000       0.00000       0.00000       0.00000       0.00000       0.00000  
      12        12         1      2000    recall           pt00008      54.75819       0.00060       0.48790       0.16427       0.18180       0.16427       0.00000       1.04041       0.09692       0.82137       0.00000       0.00000       0.00000       0.00000       0.00000       0.00000       0.00000       0.00000  
       1         1         1      2001    recall           pt00008      54.75819       0.00082       0.44792       0.20425       0.03231       0.14620       0.00000       1.42371       0.02355       0.87613       0.00000       0.00000       0.00000       0.00000       0.00000       0.00000       0.00000       0.00000  
       2         2         1      2001    recall           pt00008      54.75819       0.00082       0.44792       0.20425       0.03231       0.14620       0.00000       1.42371       0.02355       0.87613       0.00000       0.00000       0.00000       0.00000       0.00000       0.00000       0.00000       0.00000  
       3         3         1      2001    recall           pt00008      54.75819       0.00082       0.44792       0.20425       0.03231       0.14620       0.00000       1.42371       0.02355       0.87613       0.00000       0.00000       0.00000       0.00000       0.00000       0.00000       0.00000       0.00000  
       4         4         1      2001    recall           pt00008      54.75819       0.00082       0.44792       0.20425       0.03231       0.14620       0.00000       1.42371       0.02355       0.87613       0.00000       0.00000       0.00000       0.00000       0.00000       0.00000       0.00000       0.00000  
       5         5         1      2001    recall           pt00008      54.75819       0.00082       0.44792       0.20425       0.03231       0.14620       0.00000       1.42371       0.02355       0.87613       0.00000       0.00000       0.00000       0.00000       0.00000       0.00000       0.00000       0.00000  
       6         6         1      2001    recall           pt00008      54.75819       0.00082       0.44792       0.20425       0.03231       0.14620       0.00000       1.42371       0.02355       0.87613       0.00000       0.00000       0.00000       0.00000       0.00000       0.00000       0.00000       0.00000  
       7         7         1      2001    recall           pt00008      54.75819       0.00082       0.44792       0.20425       0.03231       0.14620       0.00000       1.42371       0.02355       0.87613       0.00000       0.00000       0.00000       0.00000       0.00000       0.00000       0.00000       0.00000  
       8         8         1      2001    recall           pt00008      54.75819       0.00082       0.44792       0.20425       0.03231       0.14620       0.00000       1.42371       0.02355       0.87613       0.00000       0.00000       0.00000       0.00000       0.00000       0.00000       0.00000       0.00000  
       9         9         1      2001    recall           pt00008      54.75819       0.00082       0.44792       0.20425       0.03231       0.14620       0.00000       1.42371       0.02355       0.87613       0.00000       0.00000       0.00000       0.00000       0.00000       0.00000       0.00000       0.00000  
      10        10         1      2001    recall           pt00008      54.75819       0.00082       0.44792       0.20425       0.03231       0.14620       0.00000       1.42371       0.02355       0.87613       0.00000       0.00000       0.00000       0.00000       0.00000       0.00000       0.00000       0.00000  
      11        11         1      2001    recall           pt00008      54.75819       0.00082       0.44792       0.20425       0.03231       0.14620       0.00000       1.42371       0.02355       0.87613       0.00000       0.00000       0.00000       0.00000       0.00000       0.00000       0.00000       0.00000  
      12        12         1      2001    recall           pt00008      54.75819       0.00082       0.44792       0.20425       0.03231       0.14620       0.00000       1.42371       0.02355       0.87613       0.00000       0.00000       0.00000       0.00000       0.00000       0.00000       0.00000       0.00000  
       1         1         1      2002    recall           pt00008      54.75819       0.00119       0.57825       0.17523       0.57825       0.17523       0.00000       0.77100       0.00000       0.87613       0.00000       0.00000       0.00000       0.00000       0.00000       0.00000       0.00000       0.00000  
       2         2         1      2002    recall           pt00008      54.75819       0.00119       0.57825       0.17523       0.57825       0.17523       0.00000       0.77100       0.00000       0.87613       0.00000       0.00000       0.00000       0.00000       0.00000       0.00000       0.00000       0.00000  
       3         3         1      2002    recall           pt00008      54.75819       0.00119       0.57825       0.17523       0.57825       0.17523       0.00000       0.77100       0.00000       0.87613       0.00000       0.00000       0.00000       0.00000       0.00000       0.00000       0.00000       0.00000  
       4         4         1      2002    recall           pt00008      54.75819       0.00119       0.57825       0.17523       0.57825       0.17523       0.00000       0.77100       0.00000       0.87613       0.00000       0.00000       0.00000       0.00000       0.00000       0.00000       0.00000       0.00000  
       5         5         1      2002    recall           pt00008      54.75819       0.00119       0.57825       0.17523       0.57825       0.17523       0.00000       0.77100       0.00000       0.87613       0.00000       0.00000       0.00000       0.00000       0.00000       0.00000       0.00000       0.00000  
       6         6         1      2002    recall           pt00008      54.75819       0.00119       0.57825       0.17523       0.57825       0.17523       0.00000       0.77100       0.00000       0.87613       0.00000       0.00000       0.00000       0.00000       0.00000       0.00000       0.00000       0.00000  
       7         7         1      2002    recall           pt00008      54.75819       0.00119       0.57825       0.17523       0.57825       0.17523       0.00000       0.77100       0.00000       0.87613       0.00000       0.00000       0.00000       0.00000       0.00000       0.00000       0.00000       0.00000  
       8         8         1      2002    recall           pt00008      54.75819       0.00119       0.57825       0.17523       0.57825       0.17523       0.00000       0.77100       0.00000       0.87613       0.00000       0.00000       0.00000       0.00000       0.00000       0.00000       0.00000       0.00000  
       9         9         1      2002    recall           pt00008      54.75819       0.00119       0.57825       0.17523       0.57825       0.17523       0.00000       0.77100       0.00000       0.87613       0.00000       0.00000       0.00000       0.00000       0.00000       0.00000       0.00000       0.00000  
      10        10         1      2002    recall           pt00008      54.75819       0.00119       0.57825       0.17523       0.57825       0.17523       0.00000       0.77100       0.00000       0.87613       0.00000       0.00000       0.00000       0.00000       0.00000       0.00000       0.00000       0.00000  
      11        11         1      2002    recall           pt00008      54.75819       0.00119       0.57825       0.17523       0.57825       0.17523       0.00000       0.77100       0.00000       0.87613       0.00000       0.00000       0.00000       0.00000       0.00000       0.00000       0.00000       0.00000  
      12        12         1      2002    recall           pt00008      54.75819       0.00119       0.57825       0.17523       0.57825       0.17523       0.00000       0.77100       0.00000       0.87613       0.00000       0.00000       0.00000       0.00000       0.00000       0.00000       0.00000       0.00000  
       1         1         1      2003    recall           pt00008      41.06864       0.00087       0.43640       0.13224       0.43640       0.13224       0.00000       0.58186       0.00000       0.66121       0.00000       0.00000       0.00000       0.00000       0.00000       0.00000       0.00000       0.00000  
       2         2         1      2003    recall           pt00008      41.06864       0.00087       0.43640       0.13224       0.43640       0.13224       0.00000       0.58186       0.00000       0.66121       0.00000       0.00000       0.00000       0.00000       0.00000       0.00000       0.00000       0.00000  
       3         3         1      2003    recall           pt00008      41.06864       0.00087       0.43640       0.13224       0.43640       0.13224       0.00000       0.58186       0.00000       0.66121       0.00000       0.00000       0.00000       0.00000       0.00000       0.00000       0.00000       0.00000  
       4         4         1      2003    recall           pt00008      41.06864       0.00087       0.43640       0.13224       0.43640       0.13224       0.00000       0.58186       0.00000       0.66121       0.00000       0.00000       0.00000       0.00000       0.00000       0.00000       0.00000       0.00000  
       5         5         1      2003    recall           pt00008      41.06864       0.00087       0.43640       0.13224       0.43640       0.13224       0.00000       0.58186       0.00000       0.66121       0.00000       0.00000       0.00000       0.00000       0.00000       0.00000       0.00000       0.00000  
       6         6         1      2003    recall           pt00008      41.06864       0.00087       0.43640       0.13224       0.43640       0.13224       0.00000       0.58186       0.00000       0.66121       0.00000       0.00000       0.00000       0.00000       0.00000       0.00000       0.00000       0.00000  
       7         7         1      2003    recall           pt00008      41.06864       0.00087       0.43640       0.13224       0.43640       0.13224       0.00000       0.58186       0.00000       0.66121       0.00000       0.00000       0.00000       0.00000       0.00000       0.00000       0.00000       0.00000  
       8         8         1      2003    recall           pt00008      41.06864       0.00087       0.43640       0.13224       0.43640       0.13224       0.00000       0.58186       0.00000       0.66121       0.00000       0.00000       0.00000       0.00000       0.00000       0.00000       0.00000       0.00000  
       9         9         1      2003    recall           pt00008      41.06864       0.00087       0.43640       0.13224       0.43640       0.13224       0.00000       0.58186       0.00000       0.66121       0.00000       0.00000       0.00000       0.00000       0.00000       0.00000       0.00000       0.00000  
      10        10         1      2003    recall           pt00008      41.06864       0.00087       0.43640       0.13224       0.43640       0.13224       0.00000       0.58186       0.00000       0.66121       0.00000       0.00000       0.00000       0.00000       0.00000       0.00000       0.00000       0.00000  
      11        11         1      2003    recall           pt00008      41.06864       0.00087       0.43640       0.13224       0.43640       0.13224       0.00000       0.58186       0.00000       0.66121       0.00000       0.00000       0.00000       0.00000       0.00000       0.00000       0.00000       0.00000  
      12        12         1      2003    recall           pt00008      41.06864       0.00087       0.43640       0.13224       0.43640       0.13224       0.00000       0.58186       0.00000       0.66121       0.00000       0.00000       0.00000       0.00000       0.00000       0.00000       0.00000       0.00000  
       1         1         1      2004    recall           pt00008       0.00000       0.00000       0.00000       0.00000       0.00000       0.00000       0.00000       0.00000       0.00000       0.00000       0.00000       0.00000       0.00000       0.00000       0.00000       0.00000       0.00000       0.00000  
       2         2         1      2004    recall           pt00008       0.00000       0.00000       0.00000       0.00000       0.00000       0.00000       0.00000       0.00000       0.00000       0.00000       0.00000       0.00000       0.00000       0.00000       0.00000       0.00000       0.00000       0.00000  
       3         3         1      2004    recall           pt00008       0.00000       0.00000       0.00000       0.00000       0.00000       0.00000       0.00000       0.00000       0.00000       0.00000       0.00000       0.00000       0.00000       0.00000       0.00000       0.00000       0.00000       0.00000  
       4         4         1      2004    recall           pt00008       0.00000       0.00000       0.00000       0.00000       0.00000       0.00000       0.00000       0.00000       0.00000       0.00000       0.00000       0.00000       0.00000       0.00000       0.00000       0.00000       0.00000       0.00000  
       5         5         1      2004    recall           pt00008       0.00000       0.00000       0.00000       0.00000       0.00000       0.00000       0.00000       0.00000       0.00000       0.00000       0.00000       0.00000       0.00000       0.00000       0.00000       0.00000       0.00000       0.00000  
       6         6         1      2004    recall           pt00008       0.00000       0.00000       0.00000       0.00000       0.00000       0.00000       0.00000       0.00000       0.00000       0.00000       0.00000       0.00000       0.00000       0.00000       0.00000       0.00000       0.00000       0.00000  
       7         7         1      2004    recall           pt00008       0.00000       0.00000       0.00000       0.00000       0.00000       0.00000       0.00000       0.00000       0.00000       0.00000       0.00000       0.00000       0.00000       0.00000       0.00000       0.00000       0.00000       0.00000  
       8         8         1      2004    recall           pt00008       0.00000       0.00000       0.00000       0.00000       0.00000       0.00000       0.00000       0.00000       0.00000       0.00000       0.00000       0.00000       0.00000       0.00000       0.00000       0.00000       0.00000       0.00000  
       9         9         1      2004    recall           pt00008       0.00000       0.00000       0.00000       0.00000       0.00000       0.00000       0.00000       0.00000       0.00000       0.00000       0.00000       0.00000       0.00000       0.00000       0.00000       0.00000       0.00000       0.00000  
      10        10         1      2004    recall           pt00008       0.00000       0.00000       0.00000       0.00000       0.00000       0.00000       0.00000       0.00000       0.00000       0.00000       0.00000       0.00000       0.00000       0.00000       0.00000       0.00000       0.00000       0.00000  
      11        11         1      2004    recall           pt00008       0.00000       0.00000       0.00000       0.00000       0.00000       0.00000       0.00000       0.00000       0.00000       0.00000       0.00000       0.00000       0.00000       0.00000       0.00000       0.00000       0.00000       0.00000  
      12        12         1      2004    recall           pt00008       0.00000       0.00000       0.00000       0.00000       0.00000       0.00000       0.00000       0.00000       0.00000       0.00000       0.00000       0.00000       0.00000       0.00000       0.00000       0.00000       0.00000       0.00000  
       1         1         1      2005    recall           pt00008       0.00000       0.00000       0.00000       0.00000       0.00000       0.00000       0.00000       0.00000       0.00000       0.00000       0.00000       0.00000       0.00000       0.00000       0.00000       0.00000       0.00000       0.00000  
       2         2         1      2005    recall           pt00008       0.00000       0.00000       0.00000       0.00000       0.00000       0.00000       0.00000       0.00000       0.00000       0.00000       0.00000       0.00000       0.00000       0.00000       0.00000       0.00000       0.00000       0.00000  
       3         3         1      2005    recall           pt00008       0.00000       0.00000       0.00000       0.00000       0.00000       0.00000       0.00000       0.00000       0.00000       0.00000       0.00000       0.00000       0.00000       0.00000       0.00000       0.00000       0.00000       0.00000  
       4         4         1      2005    recall           pt00008       0.00000       0.00000       0.00000       0.00000       0.00000       0.00000       0.00000       0.00000       0.00000       0.00000       0.00000       0.00000       0.00000       0.00000       0.00000       0.00000       0.00000       0.00000  
       5         5         1      2005    recall           pt00008       0.00000       0.00000       0.00000       0.00000       0.00000       0.00000       0.00000       0.00000       0.00000       0.00000       0.00000       0.00000       0.00000       0.00000       0.00000       0.00000       0.00000       0.00000  
       6         6         1      2005    recall           pt00008       0.00000       0.00000       0.00000       0.00000       0.00000       0.00000       0.00000       0.00000       0.00000       0.00000       0.00000       0.00000       0.00000       0.00000       0.00000       0.00000       0.00000       0.00000  
       7         7         1      2005    recall           pt00008       0.00000       0.00000       0.00000       0.00000       0.00000       0.00000       0.00000       0.00000       0.00000       0.00000       0.00000       0.00000       0.00000       0.00000       0.00000       0.00000       0.00000       0.00000  
       8         8         1      2005    recall           pt00008       0.00000       0.00000       0.00000       0.00000       0.00000       0.00000       0.00000       0.00000       0.00000       0.00000       0.00000       0.00000       0.00000       0.00000       0.00000       0.00000       0.00000       0.00000  
       9         9         1      2005    recall           pt00008       0.00000       0.00000       0.00000       0.00000       0.00000       0.00000       0.00000       0.00000       0.00000       0.00000       0.00000       0.00000       0.00000       0.00000       0.00000       0.00000       0.00000       0.00000  
      10        10         1      2005    recall           pt00008       0.00000       0.00000       0.00000       0.00000       0.00000       0.00000       0.00000       0.00000       0.00000       0.00000       0.00000       0.00000       0.00000       0.00000       0.00000       0.00000       0.00000       0.00000  
      11        11         1      2005    recall           pt00008       0.00000       0.00000       0.00000       0.00000       0.00000       0.00000       0.00000       0.00000       0.00000       0.00000       0.00000       0.00000       0.00000       0.00000       0.00000       0.00000       0.00000       0.00000  
      12        12         1      2005    recall           pt00008       0.00000       0.00000       0.00000       0.00000       0.00000       0.00000       0.00000       0.00000       0.00000       0.00000       0.00000       0.00000       0.00000       0.00000       0.00000       0.00000       0.00000       0.00000  
       1         1         1      2006    recall           pt00008       0.00000       0.00000       0.00000       0.00000       0.00000       0.00000       0.00000       0.00000       0.00000       0.00000       0.00000       0.00000       0.00000       0.00000       0.00000       0.00000       0.00000       0.00000  
       2         2         1      2006    recall           pt00008       0.00000       0.00000       0.00000       0.00000       0.00000       0.00000       0.00000       0.00000       0.00000       0.00000       0.00000       0.00000       0.00000       0.00000       0.00000       0.00000       0.00000       0.00000  
       3         3         1      2006    recall           pt00008       0.00000       0.00000       0.00000       0.00000       0.00000       0.00000       0.00000       0.00000       0.00000       0.00000       0.00000       0.00000       0.00000       0.00000       0.00000       0.00000       0.00000       0.00000  
       4         4         1      2006    recall           pt00008       0.00000       0.00000       0.00000       0.00000       0.00000       0.00000       0.00000       0.00000       0.00000       0.00000       0.00000       0.00000       0.00000       0.00000       0.00000       0.00000       0.00000       0.00000  
       5         5         1      2006    recall           pt00008       0.00000       0.00000       0.00000       0.00000       0.00000       0.00000       0.00000       0.00000       0.00000       0.00000       0.00000       0.00000       0.00000       0.00000       0.00000       0.00000       0.00000       0.00000  
       6         6         1      2006    recall           pt00008       0.00000       0.00000       0.00000       0.00000       0.00000       0.00000       0.00000       0.00000       0.00000       0.00000       0.00000       0.00000       0.00000       0.00000       0.00000       0.00000       0.00000       0.00000  
       7         7         1      2006    recall           pt00008       0.00000       0.00000       0.00000       0.00000       0.00000       0.00000       0.00000       0.00000       0.00000       0.00000       0.00000       0.00000       0.00000       0.00000       0.00000       0.00000       0.00000       0.00000  
       8         8         1      2006    recall           pt00008       0.00000       0.00000       0.00000       0.00000       0.00000       0.00000       0.00000       0.00000       0.00000       0.00000       0.00000       0.00000       0.00000       0.00000       0.00000       0.00000       0.00000       0.00000  
       9         9         1      2006    recall           pt00008       0.00000       0.00000       0.00000       0.00000       0.00000       0.00000       0.00000       0.00000       0.00000       0.00000       0.00000       0.00000       0.00000       0.00000       0.00000       0.00000       0.00000       0.00000  
      10        10         1      2006    recall           pt00008       0.00000       0.00000       0.00000       0.00000       0.00000       0.00000       0.00000       0.00000       0.00000       0.00000       0.00000       0.00000       0.00000       0.00000       0.00000       0.00000       0.00000       0.00000  
      11        11         1      2006    recall           pt00008       0.00000       0.00000       0.00000       0.00000       0.00000       0.00000       0.00000       0.00000       0.00000       0.00000       0.00000       0.00000       0.00000       0.00000       0.00000       0.00000       0.00000       0.00000  
      12        12         1      2006    recall           pt00008       0.00000       0.00000       0.00000       0.00000       0.00000       0.00000       0.00000       0.00000       0.00000       0.00000       0.00000       0.00000       0.00000       0.00000       0.00000       0.00000       0.00000       0.00000  
       1         1         1      2007    recall           pt00008       0.00000       0.00000       0.00000       0.00000       0.00000       0.00000       0.00000       0.00000       0.00000       0.00000       0.00000       0.00000       0.00000       0.00000       0.00000       0.00000       0.00000       0.00000  
       2         2         1      2007    recall           pt00008       0.00000       0.00000       0.00000       0.00000       0.00000       0.00000       0.00000       0.00000       0.00000       0.00000       0.00000       0.00000       0.00000       0.00000       0.00000       0.00000       0.00000       0.00000  
       3         3         1      2007    recall           pt00008       0.00000       0.00000       0.00000       0.00000       0.00000       0.00000       0.00000       0.00000       0.00000       0.00000       0.00000       0.00000       0.00000       0.00000       0.00000       0.00000       0.00000       0.00000  
       4         4         1      2007    recall           pt00008       0.00000       0.00000       0.00000       0.00000       0.00000       0.00000       0.00000       0.00000       0.00000       0.00000       0.00000       0.00000       0.00000       0.00000       0.00000       0.00000       0.00000       0.00000  
       5         5         1      2007    recall           pt00008       0.00000       0.00000       0.00000       0.00000       0.00000       0.00000       0.00000       0.00000       0.00000       0.00000       0.00000       0.00000       0.00000       0.00000       0.00000       0.00000       0.00000       0.00000  
       6         6         1      2007    recall           pt00008       0.00000       0.00000       0.00000       0.00000       0.00000       0.00000       0.00000       0.00000       0.00000       0.00000       0.00000       0.00000       0.00000       0.00000       0.00000       0.00000       0.00000       0.00000  
       7         7         1      2007    recall           pt00008       0.00000       0.00000       0.00000       0.00000       0.00000       0.00000       0.00000       0.00000       0.00000       0.00000       0.00000       0.00000       0.00000       0.00000       0.00000       0.00000       0.00000       0.00000  
       8         8         1      2007    recall           pt00008       0.00000       0.00000       0.00000       0.00000       0.00000       0.00000       0.00000       0.00000       0.00000       0.00000       0.00000       0.00000       0.00000       0.00000       0.00000       0.00000       0.00000       0.00000  
       9         9         1      2007    recall           pt00008       0.00000       0.00000       0.00000       0.00000       0.00000       0.00000       0.00000       0.00000       0.00000       0.00000       0.00000       0.00000       0.00000       0.00000       0.00000       0.00000       0.00000       0.00000  
      10        10         1      2007    recall           pt00008       0.00000       0.00000       0.00000       0.00000       0.00000       0.00000       0.00000       0.00000       0.00000       0.00000       0.00000       0.00000       0.00000       0.00000       0.00000       0.00000       0.00000       0.00000  
      11        11         1      2007    recall           pt00008       0.00000       0.00000       0.00000       0.00000       0.00000       0.00000       0.00000       0.00000       0.00000       0.00000       0.00000       0.00000       0.00000       0.00000       0.00000       0.00000       0.00000       0.00000  
      12        12         1      2007    recall           pt00008       0.00000       0.00000       0.00000       0.00000       0.00000       0.00000       0.00000       0.00000       0.00000       0.00000       0.00000       0.00000       0.00000       0.00000       0.00000       0.00000       0.00000       0.00000  
       1         1         1      2008    recall           pt00008       0.00000       0.00000       0.00000       0.00000       0.00000       0.00000       0.00000       0.00000       0.00000       0.00000       0.00000       0.00000       0.00000       0.00000       0.00000       0.00000       0.00000       0.00000  
       2         2         1      2008    recall           pt00008       0.00000       0.00000       0.00000       0.00000       0.00000       0.00000       0.00000       0.00000       0.00000       0.00000       0.00000       0.00000       0.00000       0.00000       0.00000       0.00000       0.00000       0.00000  
       3         3         1      2008    recall           pt00008       0.00000       0.00000       0.00000       0.00000       0.00000       0.00000       0.00000       0.00000       0.00000       0.00000       0.00000       0.00000       0.00000       0.00000       0.00000       0.00000       0.00000       0.00000  
       4         4         1      2008    recall           pt00008       0.00000       0.00000       0.00000       0.00000       0.00000       0.00000       0.00000       0.00000       0.00000       0.00000       0.00000       0.00000       0.00000       0.00000       0.00000       0.00000       0.00000       0.00000  
       5         5         1      2008    recall           pt00008       0.00000       0.00000       0.00000       0.00000       0.00000       0.00000       0.00000       0.00000       0.00000       0.00000       0.00000       0.00000       0.00000       0.00000       0.00000       0.00000       0.00000       0.00000  
       6         6         1      2008    recall           pt00008       0.00000       0.00000       0.00000       0.00000       0.00000       0.00000       0.00000       0.00000       0.00000       0.00000       0.00000       0.00000       0.00000       0.00000       0.00000       0.00000       0.00000       0.00000  
       7         7         1      2008    recall           pt00008       0.00000       0.00000       0.00000       0.00000       0.00000       0.00000       0.00000       0.00000       0.00000       0.00000       0.00000       0.00000       0.00000       0.00000       0.00000       0.00000       0.00000       0.00000  
       8         8         1      2008    recall           pt00008       0.00000       0.00000       0.00000       0.00000       0.00000       0.00000       0.00000       0.00000       0.00000       0.00000       0.00000       0.00000       0.00000       0.00000       0.00000       0.00000       0.00000       0.00000  
       9         9         1      2008    recall           pt00008       0.00000       0.00000       0.00000       0.00000       0.00000       0.00000       0.00000       0.00000       0.00000       0.00000       0.00000       0.00000       0.00000       0.00000       0.00000       0.00000       0.00000       0.00000  
      10        10         1      2008    recall           pt00008       0.00000       0.00000       0.00000       0.00000       0.00000       0.00000       0.00000       0.00000       0.00000       0.00000       0.00000       0.00000       0.00000       0.00000       0.00000       0.00000       0.00000       0.00000  
      11        11         1      2008    recall           pt00008       0.00000       0.00000       0.00000       0.00000       0.00000       0.00000       0.00000       0.00000       0.00000       0.00000       0.00000       0.00000       0.00000       0.00000       0.00000       0.00000       0.00000       0.00000  
      12        12         1      2008    recall           pt00008       0.00000       0.00000       0.00000       0.00000       0.00000       0.00000       0.00000       0.00000       0.00000       0.00000       0.00000       0.00000       0.00000       0.00000       0.00000       0.00000       0.00000       0.00000  
       1         1         1      2009    recall           pt00008       0.00000       0.00000       0.00000       0.00000       0.00000       0.00000       0.00000       0.00000       0.00000       0.00000       0.00000       0.00000       0.00000       0.00000       0.00000       0.00000       0.00000       0.00000  
       2         2         1      2009    recall           pt00008       0.00000       0.00000       0.00000       0.00000       0.00000       0.00000       0.00000       0.00000       0.00000       0.00000       0.00000       0.00000       0.00000       0.00000       0.00000       0.00000       0.00000       0.00000  
       3         3         1      2009    recall           pt00008       0.00000       0.00000       0.00000       0.00000       0.00000       0.00000       0.00000       0.00000       0.00000       0.00000       0.00000       0.00000       0.00000       0.00000       0.00000       0.00000       0.00000       0.00000  
       4         4         1      2009    recall           pt00008       0.00000       0.00000       0.00000       0.00000       0.00000       0.00000       0.00000       0.00000       0.00000       0.00000       0.00000       0.00000       0.00000       0.00000       0.00000       0.00000       0.00000       0.00000  
       5         5         1      2009    recall           pt00008       0.00000       0.00000       0.00000       0.00000       0.00000       0.00000       0.00000       0.00000       0.00000       0.00000       0.00000       0.00000       0.00000       0.00000       0.00000       0.00000       0.00000       0.00000  
       6         6         1      2009    recall           pt00008       0.00000       0.00000       0.00000       0.00000       0.00000       0.00000       0.00000       0.00000       0.00000       0.00000       0.00000       0.00000       0.00000       0.00000       0.00000       0.00000       0.00000       0.00000  
       7         7         1      2009    recall           pt00008       0.00000       0.00000       0.00000       0.00000       0.00000       0.00000       0.00000       0.00000       0.00000       0.00000       0.00000       0.00000       0.00000       0.00000       0.00000       0.00000       0.00000       0.00000  
       8         8         1      2009    recall           pt00008       0.00000       0.00000       0.00000       0.00000       0.00000       0.00000       0.00000       0.00000       0.00000       0.00000       0.00000       0.00000       0.00000       0.00000       0.00000       0.00000       0.00000       0.00000  
       9         9         1      2009    recall           pt00008       0.00000       0.00000       0.00000       0.00000       0.00000       0.00000       0.00000       0.00000       0.00000       0.00000       0.00000       0.00000       0.00000       0.00000       0.00000       0.00000       0.00000       0.00000  
      10        10         1      2009    recall           pt00008       0.00000       0.00000       0.00000       0.00000       0.00000       0.00000       0.00000       0.00000       0.00000       0.00000       0.00000       0.00000       0.00000       0.00000       0.00000       0.00000       0.00000       0.00000  
      11        11         1      2009    recall           pt00008       0.00000       0.00000       0.00000       0.00000       0.00000       0.00000       0.00000       0.00000       0.00000       0.00000       0.00000       0.00000       0.00000       0.00000       0.00000       0.00000       0.00000       0.00000  
      12        12         1      2009    recall           pt00008       0.00000       0.00000       0.00000       0.00000       0.00000       0.00000       0.00000       0.00000       0.00000       0.00000       0.00000       0.00000       0.00000       0.00000       0.00000       0.00000       0.00000       0.00000  
       1         1         1      2010    recall           pt00008      36.41419       0.00067       0.99979       0.30297       0.99979       0.30297       0.00000       1.33305       0.00000       1.51483       0.00000       0.00000       0.00000       0.00000       0.00000       0.00000       0.00000       0.00000  
       2         2         1      2010    recall           pt00008      36.41419       0.00067       0.99979       0.30297       0.99979       0.30297       0.00000       1.33305       0.00000       1.51483       0.00000       0.00000       0.00000       0.00000       0.00000       0.00000       0.00000       0.00000  
       3         3         1      2010    recall           pt00008      36.41419       0.00067       0.99979       0.30297       0.99979       0.30297       0.00000       1.33305       0.00000       1.51483       0.00000       0.00000       0.00000       0.00000       0.00000       0.00000       0.00000       0.00000  
       4         4         1      2010    recall           pt00008      36.41419       0.00067       0.99979       0.30297       0.99979       0.30297       0.00000       1.33305       0.00000       1.51483       0.00000       0.00000       0.00000       0.00000       0.00000       0.00000       0.00000       0.00000  
       5         5         1      2010    recall           pt00008      36.41419       0.00067       0.99979       0.30297       0.99979       0.30297       0.00000       1.33305       0.00000       1.51483       0.00000       0.00000       0.00000       0.00000       0.00000       0.00000       0.00000       0.00000  
       6         6         1      2010    recall           pt00008      36.41419       0.00067       0.99979       0.30297       0.99979       0.30297       0.00000       1.33305       0.00000       1.51483       0.00000       0.00000       0.00000       0.00000       0.00000       0.00000       0.00000       0.00000  
       7         7         1      2010    recall           pt00008      36.41419       0.00067       0.99979       0.30297       0.99979       0.30297       0.00000       1.33305       0.00000       1.51483       0.00000       0.00000       0.00000       0.00000       0.00000       0.00000       0.00000       0.00000  
       8         8         1      2010    recall           pt00008      36.41419       0.00067       0.99979       0.30297       0.99979       0.30297       0.00000       1.33305       0.00000       1.51483       0.00000       0.00000       0.00000       0.00000       0.00000       0.00000       0.00000       0.00000  
       9         9         1      2010    recall           pt00008      36.41419       0.00067       0.99979       0.30297       0.99979       0.30297       0.00000       1.33305       0.00000       1.51483       0.00000       0.00000       0.00000       0.00000       0.00000       0.00000       0.00000       0.00000  
      10        10         1      2010    recall           pt00008      36.41419       0.00067       0.99979       0.30297       0.99979       0.30297       0.00000       1.33305       0.00000       1.51483       0.00000       0.00000       0.00000       0.00000       0.00000       0.00000       0.00000       0.00000  
      11        11         1      2010    recall           pt00008      36.41419       0.00067       0.99979       0.30297       0.99979       0.30297       0.00000       1.33305       0.00000       1.51483       0.00000       0.00000       0.00000       0.00000       0.00000       0.00000       0.00000       0.00000  
      12        12         1      2010    recall           pt00008      36.41419       0.00067       0.99979       0.30297       0.99979       0.30297       0.00000       1.33305       0.00000       1.51483       0.00000       0.00000       0.00000       0.00000       0.00000       0.00000       0.00000       0.00000  
       1         1         1      2011    recall           pt00008      40.79485       0.00049       0.00000       0.11817       0.00836       0.11817       0.00000       1.89696       0.01909       0.59083       0.00000       0.00000       0.00000       0.00000       0.00000       0.00000       0.00000       0.00000  
       2         2         1      2011    recall           pt00008      40.79485       0.00049       0.00000       0.11817       0.00836       0.11817       0.00000       1.89696       0.01909       0.59083       0.00000       0.00000       0.00000       0.00000       0.00000       0.00000       0.00000       0.00000  
       3         3         1      2011    recall           pt00008      40.79485       0.00049       0.00000       0.11817       0.00836       0.11817       0.00000       1.89696       0.01909       0.59083       0.00000       0.00000       0.00000       0.00000       0.00000       0.00000       0.00000       0.00000  
       4         4         1      2011    recall           pt00008      40.79485       0.00049       0.00000       0.11817       0.00836       0.11817       0.00000       1.89696       0.01909       0.59083       0.00000       0.00000       0.00000       0.00000       0.00000       0.00000       0.00000       0.00000  
       5         5         1      2011    recall           pt00008      40.79485       0.00049       0.00000       0.11817       0.00836       0.11817       0.00000       1.89696       0.01909       0.59083       0.00000       0.00000       0.00000       0.00000       0.00000       0.00000       0.00000       0.00000  
       6         6         1      2011    recall           pt00008      40.79485       0.00049       0.00000       0.11817       0.00836       0.11817       0.00000       1.89696       0.01909       0.59083       0.00000       0.00000       0.00000       0.00000       0.00000       0.00000       0.00000       0.00000  
       7         7         1      2011    recall           pt00008      40.79485       0.00049       0.00000       0.11817       0.00836       0.11817       0.00000       1.89696       0.01909       0.59083       0.00000       0.00000       0.00000       0.00000       0.00000       0.00000       0.00000       0.00000  
       8         8         1      2011    recall           pt00008      40.79485       0.00049       0.00000       0.11817       0.00836       0.11817       0.00000       1.89696       0.01909       0.59083       0.00000       0.00000       0.00000       0.00000       0.00000       0.00000       0.00000       0.00000  
       9         9         1      2011    recall           pt00008      40.79485       0.00049       0.00000       0.11817       0.00836       0.11817       0.00000       1.89696       0.01909       0.59083       0.00000       0.00000       0.00000       0.00000       0.00000       0.00000       0.00000       0.00000  
      10        10         1      2011    recall           pt00008      40.79485       0.00049       0.00000       0.11817       0.00836       0.11817       0.00000       1.89696       0.01909       0.59083       0.00000       0.00000       0.00000       0.00000       0.00000       0.00000       0.00000       0.00000  
      11        11         1      2011    recall           pt00008      40.79485       0.00049       0.00000       0.11817       0.00836       0.11817       0.00000       1.89696       0.01909       0.59083       0.00000       0.00000       0.00000       0.00000       0.00000       0.00000       0.00000       0.00000  
      12        12         1      2011    recall           pt00008      40.79485       0.00049       0.00000       0.11817       0.00836       0.11817       0.00000       1.89696       0.01909       0.59083       0.00000       0.00000       0.00000       0.00000       0.00000       0.00000       0.00000       0.00000  
       1         1         1      2012    recall           pt00008       0.00000       0.00000       0.00000       0.00000       0.00000       0.00000       0.00000       0.00000       0.00000       0.00000       0.00000       0.00000       0.00000       0.00000       0.00000       0.00000       0.00000       0.00000  
       2         2         1      2012    recall           pt00008       0.00000       0.00000       0.00000       0.00000       0.00000       0.00000       0.00000       0.00000       0.00000       0.00000       0.00000       0.00000       0.00000       0.00000       0.00000       0.00000       0.00000       0.00000  
       3         3         1      2012    recall           pt00008       0.00000       0.00000       0.00000       0.00000       0.00000       0.00000       0.00000       0.00000       0.00000       0.00000       0.00000       0.00000       0.00000       0.00000       0.00000       0.00000       0.00000       0.00000  
       4         4         1      2012    recall           pt00008       0.00000       0.00000       0.00000       0.00000       0.00000       0.00000       0.00000       0.00000       0.00000       0.00000       0.00000       0.00000       0.00000       0.00000       0.00000       0.00000       0.00000       0.00000  
       5         5         1      2012    recall           pt00008       0.00000       0.00000       0.00000       0.00000       0.00000       0.00000       0.00000       0.00000       0.00000       0.00000       0.00000       0.00000       0.00000       0.00000       0.00000       0.00000       0.00000       0.00000  
       6         6         1      2012    recall           pt00008       0.00000       0.00000       0.00000       0.00000       0.00000       0.00000       0.00000       0.00000       0.00000       0.00000       0.00000       0.00000       0.00000       0.00000       0.00000       0.00000       0.00000       0.00000  
       7         7         1      2012    recall           pt00008       0.00000       0.00000       0.00000       0.00000       0.00000       0.00000       0.00000       0.00000       0.00000       0.00000       0.00000       0.00000       0.00000       0.00000       0.00000       0.00000       0.00000       0.00000  
       8         8         1      2012    recall           pt00008       0.00000       0.00000       0.00000       0.00000       0.00000       0.00000       0.00000       0.00000       0.00000       0.00000       0.00000       0.00000       0.00000       0.00000       0.00000       0.00000       0.00000       0.00000  
       9         9         1      2012    recall           pt00008       0.00000       0.00000       0.00000       0.00000       0.00000       0.00000       0.00000       0.00000       0.00000       0.00000       0.00000       0.00000       0.00000       0.00000       0.00000       0.00000       0.00000       0.00000  
      10        10         1      2012    recall           pt00008       0.00000       0.00000       0.00000       0.00000       0.00000       0.00000       0.00000       0.00000       0.00000       0.00000       0.00000       0.00000       0.00000       0.00000       0.00000       0.00000       0.00000       0.00000  
      11        11         1      2012    recall           pt00008       0.00000       0.00000       0.00000       0.00000       0.00000       0.00000       0.00000       0.00000       0.00000       0.00000       0.00000       0.00000       0.00000       0.00000       0.00000       0.00000       0.00000       0.00000  
      12        12         1      2012    recall           pt00008       0.00000       0.00000       0.00000       0.00000       0.00000       0.00000       0.00000       0.00000       0.00000       0.00000       0.00000       0.00000       0.00000       0.00000       0.00000       0.00000       0.00000       0.00000  
       1         1         1      2013    recall           pt00008       0.00000       0.00000       0.00000       0.00000       0.00000       0.00000       0.00000       0.00000       0.00000       0.00000       0.00000       0.00000       0.00000       0.00000       0.00000       0.00000       0.00000       0.00000  
       2         2         1      2013    recall           pt00008       0.00000       0.00000       0.00000       0.00000       0.00000       0.00000       0.00000       0.00000       0.00000       0.00000       0.00000       0.00000       0.00000       0.00000       0.00000       0.00000       0.00000       0.00000  
       3         3         1      2013    recall           pt00008       0.00000       0.00000       0.00000       0.00000       0.00000       0.00000       0.00000       0.00000       0.00000       0.00000       0.00000       0.00000       0.00000       0.00000       0.00000       0.00000       0.00000       0.00000  
       4         4         1      2013    recall           pt00008       0.00000       0.00000       0.00000       0.00000       0.00000       0.00000       0.00000       0.00000       0.00000       0.00000       0.00000       0.00000       0.00000       0.00000       0.00000       0.00000       0.00000       0.00000  
       5         5         1      2013    recall           pt00008       0.00000       0.00000       0.00000       0.00000       0.00000       0.00000       0.00000       0.00000       0.00000       0.00000       0.00000       0.00000       0.00000       0.00000       0.00000       0.00000       0.00000       0.00000  
       6         6         1      2013    recall           pt00008       0.00000       0.00000       0.00000       0.00000       0.00000       0.00000       0.00000       0.00000       0.00000       0.00000       0.00000       0.00000       0.00000       0.00000       0.00000       0.00000       0.00000       0.00000  
       7         7         1      2013    recall           pt00008       0.00000       0.00000       0.00000       0.00000       0.00000       0.00000       0.00000       0.00000       0.00000       0.00000       0.00000       0.00000       0.00000       0.00000       0.00000       0.00000       0.00000       0.00000  
       8         8         1      2013    recall           pt00008       0.00000       0.00000       0.00000       0.00000       0.00000       0.00000       0.00000       0.00000       0.00000       0.00000       0.00000       0.00000       0.00000       0.00000       0.00000       0.00000       0.00000       0.00000  
       9         9         1      2013    recall           pt00008       0.00000       0.00000       0.00000       0.00000       0.00000       0.00000       0.00000       0.00000       0.00000       0.00000       0.00000       0.00000       0.00000       0.00000       0.00000       0.00000       0.00000       0.00000  
      10        10         1      2013    recall           pt00008       0.00000       0.00000       0.00000       0.00000       0.00000       0.00000       0.00000       0.00000       0.00000       0.00000       0.00000       0.00000       0.00000       0.00000       0.00000       0.00000       0.00000       0.00000  
      11        11         1      2013    recall           pt00008       0.00000       0.00000       0.00000       0.00000       0.00000       0.00000       0.00000       0.00000       0.00000       0.00000       0.00000       0.00000       0.00000       0.00000       0.00000       0.00000       0.00000       0.00000  
      12        12         1      2013    recall           pt00008       0.00000       0.00000       0.00000       0.00000       0.00000       0.00000       0.00000       0.00000       0.00000       0.00000       0.00000       0.00000       0.00000       0.00000       0.00000       0.00000       0.00000       0.00000  
       1         1         1      2014    recall           pt00008       0.00000       0.00000       0.00000       0.00000       0.00000       0.00000       0.00000       0.00000       0.00000       0.00000       0.00000       0.00000       0.00000       0.00000       0.00000       0.00000       0.00000       0.00000  
       2         2         1      2014    recall           pt00008       0.00000       0.00000       0.00000       0.00000       0.00000       0.00000       0.00000       0.00000       0.00000       0.00000       0.00000       0.00000       0.00000       0.00000       0.00000       0.00000       0.00000       0.00000  
       3         3         1      2014    recall           pt00008       0.00000       0.00000       0.00000       0.00000       0.00000       0.00000       0.00000       0.00000       0.00000       0.00000       0.00000       0.00000       0.00000       0.00000       0.00000       0.00000       0.00000       0.00000  
       4         4         1      2014    recall           pt00008       0.00000       0.00000       0.00000       0.00000       0.00000       0.00000       0.00000       0.00000       0.00000       0.00000       0.00000       0.00000       0.00000       0.00000       0.00000       0.00000       0.00000       0.00000  
       5         5         1      2014    recall           pt00008       0.00000       0.00000       0.00000       0.00000       0.00000       0.00000       0.00000       0.00000       0.00000       0.00000       0.00000       0.00000       0.00000       0.00000       0.00000       0.00000       0.00000       0.00000  
       6         6         1      2014    recall           pt00008       0.00000       0.00000       0.00000       0.00000       0.00000       0.00000       0.00000       0.00000       0.00000       0.00000       0.00000       0.00000       0.00000       0.00000       0.00000       0.00000       0.00000       0.00000  
       7         7         1      2014    recall           pt00008       0.00000       0.00000       0.00000       0.00000       0.00000       0.00000       0.00000       0.00000       0.00000       0.00000       0.00000       0.00000       0.00000       0.00000       0.00000       0.00000       0.00000       0.00000  
       8         8         1      2014    recall           pt00008       0.00000       0.00000       0.00000       0.00000       0.00000       0.00000       0.00000       0.00000       0.00000       0.00000       0.00000       0.00000       0.00000       0.00000       0.00000       0.00000       0.00000       0.00000  
[...]
      11        11         1      2014    recall           pt00008       0.00000       0.00000       0.00000       0.00000       0.00000       0.00000       0.00000       0.00000       0.00000       0.00000       0.00000       0.00000       0.00000       0.00000       0.00000       0.00000       0.00000       0.00000  
      12        12         1      2014    recall           pt00008       0.00000       0.00000       0.00000       0.00000       0.00000       0.00000       0.00000       0.00000       0.00000       0.00000       0.00000       0.00000       0.00000       0.00000       0.00000       0.00000       0.00000       0.00000  
       1         1         1      2015    recall           pt00008       0.00000       0.00000       0.00000       0.00000       0.00000       0.00000       0.00000       0.00000       0.00000       0.00000       0.00000       0.00000       0.00000       0.00000       0.00000       0.00000       0.00000       0.00000  
       2         2         1      2015    recall           pt00008       0.00000       0.00000       0.00000       0.00000       0.00000       0.00000       0.00000       0.00000       0.00000       0.00000       0.00000       0.00000       0.00000       0.00000       0.00000       0.00000       0.00000       0.00000  
       3         3         1      2015    recall           pt00008       0.00000       0.00000       0.00000       0.00000       0.00000       0.00000       0.00000       0.00000       0.00000       0.00000       0.00000       0.00000       0.00000       0.00000       0.00000       0.00000       0.00000       0.00000  
       4         4         1      2015    recall           pt00008       0.00000       0.00000       0.00000       0.00000       0.00000       0.00000       0.00000       0.00000       0.00000       0.00000       0.00000       0.00000       0.00000       0.00000       0.00000       0.00000       0.00000       0.00000  
       5         5         1      2015    recall           pt00008       0.00000       0.00000       0.00000       0.00000       0.00000       0.00000       0.00000       0.00000       0.00000       0.00000       0.00000       0.00000       0.00000       0.00000       0.00000       0.00000       0.00000       0.00000  
       6         6         1      2015    recall           pt00008       0.00000       0.00000       0.00000       0.00000       0.00000       0.00000       0.00000       0.00000       0.00000       0.00000       0.00000       0.00000       0.00000       0.00000       0.00000       0.00000       0.00000       0.00000  
       7         7         1      2015    recall           pt00008       0.00000       0.00000       0.00000       0.00000       0.00000       0.00000       0.00000       0.00000       0.00000       0.00000       0.00000       0.00000       0.00000       0.00000       0.00000       0.00000       0.00000       0.00000  
       8         8         1      2015    recall           pt00008       0.00000       0.00000       0.00000       0.00000       0.00000       0.00000       0.00000       0.00000       0.00000       0.00000       0.00000       0.00000       0.00000       0.00000       0.00000       0.00000       0.00000       0.00000  
       9         9         1      2015    recall           pt00008       0.00000       0.00000       0.00000       0.00000       0.00000       0.00000       0.00000       0.00000       0.00000       0.00000       0.00000       0.00000       0.00000       0.00000       0.00000       0.00000       0.00000       0.00000  
      10        10         1      2015    recall           pt00008       0.00000       0.00000       0.00000       0.00000       0.00000       0.00000       0.00000       0.00000       0.00000       0.00000       0.00000       0.00000       0.00000       0.00000       0.00000       0.00000       0.00000       0.00000  
      11        11         1      2015    recall           pt00008       0.00000       0.00000       0.00000       0.00000       0.00000       0.00000       0.00000       0.00000       0.00000       0.00000       0.00000       0.00000       0.00000       0.00000       0.00000       0.00000       0.00000       0.00000  
      12        12         1      2015    recall           pt00008       0.00000       0.00000       0.00000       0.00000       0.00000       0.00000       0.00000       0.00000       0.00000       0.00000       0.00000       0.00000       0.00000       0.00000       0.00000       0.00000       0.00000       0.00000  
       1         1         1      2016    recall           pt00008       0.00000       0.00000       0.00000       0.00000       0.00000       0.00000       0.00000       0.00000       0.00000       0.00000       0.00000       0.00000       0.00000       0.00000       0.00000       0.00000       0.00000       0.00000  
       2         2         1      2016    recall           pt00008       0.00000       0.00000       0.00000       0.00000       0.00000       0.00000       0.00000       0.00000       0.00000       0.00000       0.00000       0.00000       0.00000       0.00000       0.00000       0.00000       0.00000       0.00000  
       3         3         1      2016    recall           pt00008       0.00000       0.00000       0.00000       0.00000       0.00000       0.00000       0.00000       0.00000       0.00000       0.00000       0.00000       0.00000       0.00000       0.00000       0.00000       0.00000       0.00000       0.00000  
       4         4         1      2016    recall           pt00008       0.00000       0.00000       0.00000       0.00000       0.00000       0.00000       0.00000       0.00000       0.00000       0.00000       0.00000       0.00000       0.00000       0.00000       0.00000       0.00000       0.00000       0.00000  
       5         5         1      2016    recall           pt00008       0.00000       0.00000       0.00000       0.00000       0.00000       0.00000       0.00000       0.00000       0.00000       0.00000       0.00000       0.00000       0.00000       0.00000       0.00000       0.00000       0.00000       0.00000  
       6         6         1      2016    recall           pt00008       0.00000       0.00000       0.00000       0.00000       0.00000       0.00000       0.00000       0.00000       0.00000       0.00000       0.00000       0.00000       0.00000       0.00000       0.00000       0.00000       0.00000       0.00000  
       7         7         1      2016    recall           pt00008       0.00000       0.00000       0.00000       0.00000       0.00000       0.00000       0.00000       0.00000       0.00000       0.00000       0.00000       0.00000       0.00000       0.00000       0.00000       0.00000       0.00000       0.00000  
       8         8         1      2016    recall           pt00008       0.00000       0.00000       0.00000       0.00000       0.00000       0.00000       0.00000       0.00000       0.00000       0.00000       0.00000       0.00000       0.00000       0.00000       0.00000       0.00000       0.00000       0.00000  
       9         9         1      2016    recall           pt00008       0.00000       0.00000       0.00000       0.00000       0.00000       0.00000       0.00000       0.00000       0.00000       0.00000       0.00000       0.00000       0.00000       0.00000       0.00000       0.00000       0.00000       0.00000  
      10        10         1      2016    recall           pt00008       0.00000       0.00000       0.00000       0.00000       0.00000       0.00000       0.00000       0.00000       0.00000       0.00000       0.00000       0.00000       0.00000       0.00000       0.00000       0.00000       0.00000       0.00000  
      11        11         1      2016    recall           pt00008       0.00000       0.00000       0.00000       0.00000       0.00000       0.00000       0.00000       0.00000       0.00000       0.00000       0.00000       0.00000       0.00000       0.00000       0.00000       0.00000       0.00000       0.00000  
      12        12         1      2016    recall           pt00008       0.00000       0.00000       0.00000       0.00000       0.00000       0.00000       0.00000       0.00000       0.00000       0.00000       0.00000       0.00000       0.00000       0.00000       0.00000       0.00000       0.00000       0.00000  
       1         1         1      2017    recall           pt00008       0.00000       0.00000       0.00000       0.00000       0.00000       0.00000       0.00000       0.00000       0.00000       0.00000       0.00000       0.00000       0.00000       0.00000       0.00000       0.00000       0.00000       0.00000  
       2         2         1      2017    recall           pt00008       0.00000       0.00000       0.00000       0.00000       0.00000       0.00000       0.00000       0.00000       0.00000       0.00000       0.00000       0.00000       0.00000       0.00000       0.00000       0.00000       0.00000       0.00000  
       3         3         1      2017    recall           pt00008       0.00000       0.00000       0.00000       0.00000       0.00000       0.00000       0.00000       0.00000       0.00000       0.00000       0.00000       0.00000       0.00000       0.00000       0.00000       0.00000       0.00000       0.00000  
       4         4         1      2017    recall           pt00008       0.00000       0.00000       0.00000       0.00000       0.00000       0.00000       0.00000       0.00000       0.00000       0.00000       0.00000       0.00000       0.00000       0.00000       0.00000       0.00000       0.00000       0.00000  
       5         5         1      2017    recall           pt00008       0.00000       0.00000       0.00000       0.00000       0.00000       0.00000       0.00000       0.00000       0.00000       0.00000       0.00000       0.00000       0.00000       0.00000       0.00000       0.00000       0.00000       0.00000  
       6         6         1      2017    recall           pt00008       0.00000       0.00000       0.00000       0.00000       0.00000       0.00000       0.00000       0.00000       0.00000       0.00000       0.00000       0.00000       0.00000       0.00000       0.00000       0.00000       0.00000       0.00000  
       7         7         1      2017    recall           pt00008       0.00000       0.00000       0.00000       0.00000       0.00000       0.00000       0.00000       0.00000       0.00000       0.00000       0.00000       0.00000       0.00000       0.00000       0.00000       0.00000       0.00000       0.00000  
       8         8         1      2017    recall           pt00008       0.00000       0.00000       0.00000       0.00000       0.00000       0.00000       0.00000       0.00000       0.00000       0.00000       0.00000       0.00000       0.00000       0.00000       0.00000       0.00000       0.00000       0.00000  
       9         9         1      2017    recall           pt00008       0.00000       0.00000       0.00000       0.00000       0.00000       0.00000       0.00000       0.00000       0.00000       0.00000       0.00000       0.00000       0.00000       0.00000       0.00000       0.00000       0.00000       0.00000  
      10        10         1      2017    recall           pt00008       0.00000       0.00000       0.00000       0.00000       0.00000       0.00000       0.00000       0.00000       0.00000       0.00000       0.00000       0.00000       0.00000       0.00000       0.00000       0.00000       0.00000       0.00000  
      11        11         1      2017    recall           pt00008       0.00000       0.00000       0.00000       0.00000       0.00000       0.00000       0.00000       0.00000       0.00000       0.00000       0.00000       0.00000       0.00000       0.00000       0.00000       0.00000       0.00000       0.00000  
      12        12         1      2017    recall           pt00008       0.00000       0.00000       0.00000       0.00000       0.00000       0.00000       0.00000       0.00000       0.00000       0.00000       0.00000       0.00000       0.00000       0.00000       0.00000       0.00000       0.00000       0.00000  
       1         1         1      2018    recall           pt00008       0.00000       0.00000       0.00000       0.00000       0.00000       0.00000       0.00000       0.00000       0.00000       0.00000       0.00000       0.00000       0.00000       0.00000       0.00000       0.00000       0.00000       0.00000  
       2         2         1      2018    recall           pt00008       0.00000       0.00000       0.00000       0.00000       0.00000       0.00000       0.00000       0.00000       0.00000       0.00000       0.00000       0.00000       0.00000       0.00000       0.00000       0.00000       0.00000       0.00000  
       3         3         1      2018    recall           pt00008       0.00000       0.00000       0.00000       0.00000       0.00000       0.00000       0.00000       0.00000       0.00000       0.00000       0.00000       0.00000       0.00000       0.00000       0.00000       0.00000       0.00000       0.00000  
       4         4         1      2018    recall           pt00008       0.00000       0.00000       0.00000       0.00000       0.00000       0.00000       0.00000       0.00000       0.00000       0.00000       0.00000       0.00000       0.00000       0.00000       0.00000       0.00000       0.00000       0.00000  
       5         5         1      2018    recall           pt00008       0.00000       0.00000       0.00000       0.00000       0.00000       0.00000       0.00000       0.00000       0.00000       0.00000       0.00000       0.00000       0.00000       0.00000       0.00000       0.00000       0.00000       0.00000  
       6         6         1      2018    recall           pt00008       0.00000       0.00000       0.00000       0.00000       0.00000       0.00000       0.00000       0.00000       0.00000       0.00000       0.00000       0.00000       0.00000       0.00000       0.00000       0.00000       0.00000       0.00000  
       7         7         1      2018    recall           pt00008       0.00000       0.00000       0.00000       0.00000       0.00000       0.00000       0.00000       0.00000       0.00000       0.00000       0.00000       0.00000       0.00000       0.00000       0.00000       0.00000       0.00000       0.00000  
       8         8         1      2018    recall           pt00008       0.00000       0.00000       0.00000       0.00000       0.00000       0.00000       0.00000       0.00000       0.00000       0.00000       0.00000       0.00000       0.00000       0.00000       0.00000       0.00000       0.00000       0.00000  
       9         9         1      2018    recall           pt00008       0.00000       0.00000       0.00000       0.00000       0.00000       0.00000       0.00000       0.00000       0.00000       0.00000       0.00000       0.00000       0.00000       0.00000       0.00000       0.00000       0.00000       0.00000  
      10        10         1      2018    recall           pt00008       0.00000       0.00000       0.00000       0.00000       0.00000       0.00000       0.00000       0.00000       0.00000       0.00000       0.00000       0.00000       0.00000       0.00000       0.00000       0.00000       0.00000       0.00000  
      11        11         1      2018    recall           pt00008       0.00000       0.00000       0.00000       0.00000       0.00000       0.00000       0.00000       0.00000       0.00000       0.00000       0.00000       0.00000       0.00000       0.00000       0.00000       0.00000       0.00000       0.00000  
      12        12         1      2018    recall           pt00008       0.00000       0.00000       0.00000       0.00000       0.00000       0.00000       0.00000       0.00000       0.00000       0.00000       0.00000       0.00000       0.00000       0.00000       0.00000       0.00000       0.00000       0.00000  
       1         1         1      2019    recall           pt00008       0.00000       0.00000       0.00000       0.00000       0.00000       0.00000       0.00000       0.00000       0.00000       0.00000       0.00000       0.00000       0.00000       0.00000       0.00000       0.00000       0.00000       0.00000  
       2         2         1      2019    recall           pt00008       0.00000       0.00000       0.00000       0.00000       0.00000       0.00000       0.00000       0.00000       0.00000       0.00000       0.00000       0.00000       0.00000       0.00000       0.00000       0.00000       0.00000       0.00000  
       3         3         1      2019    recall           pt00008       0.00000       0.00000       0.00000       0.00000       0.00000       0.00000       0.00000       0.00000       0.00000       0.00000       0.00000       0.00000       0.00000       0.00000       0.00000       0.00000       0.00000       0.00000  
       4         4         1      2019    recall           pt00008       0.00000       0.00000       0.00000       0.00000       0.00000       0.00000       0.00000       0.00000       0.00000       0.00000       0.00000       0.00000       0.00000       0.00000       0.00000       0.00000       0.00000       0.00000  
       5         5         1      2019    recall           pt00008       0.00000       0.00000       0.00000       0.00000       0.00000       0.00000       0.00000       0.00000       0.00000       0.00000       0.00000       0.00000       0.00000       0.00000       0.00000       0.00000       0.00000       0.00000  
       6         6         1      2019    recall           pt00008       0.00000       0.00000       0.00000       0.00000       0.00000       0.00000       0.00000       0.00000       0.00000       0.00000       0.00000       0.00000       0.00000       0.00000       0.00000       0.00000       0.00000       0.00000  
       7         7         1      2019    recall           pt00008       0.00000       0.00000       0.00000       0.00000       0.00000       0.00000       0.00000       0.00000       0.00000       0.00000       0.00000       0.00000       0.00000       0.00000       0.00000       0.00000       0.00000       0.00000  
       8         8         1      2019    recall           pt00008       0.00000       0.00000       0.00000       0.00000       0.00000       0.00000       0.00000       0.00000       0.00000       0.00000       0.00000       0.00000       0.00000       0.00000       0.00000       0.00000       0.00000       0.00000  
       9         9         1      2019    recall           pt00008       0.00000       0.00000       0.00000       0.00000       0.00000       0.00000       0.00000       0.00000       0.00000       0.00000       0.00000       0.00000       0.00000       0.00000       0.00000       0.00000       0.00000       0.00000  
      10        10         1      2019    recall           pt00008       0.00000       0.00000       0.00000       0.00000       0.00000       0.00000       0.00000       0.00000       0.00000       0.00000       0.00000       0.00000       0.00000       0.00000       0.00000       0.00000       0.00000       0.00000  
      11        11         1      2019    recall           pt00008       0.00000       0.00000       0.00000       0.00000       0.00000       0.00000       0.00000       0.00000       0.00000       0.00000       0.00000       0.00000       0.00000       0.00000       0.00000       0.00000       0.00000       0.00000  
      12        12         1      2019    recall           pt00008       0.00000       0.00000       0.00000       0.00000       0.00000       0.00000       0.00000       0.00000       0.00000       0.00000       0.00000       0.00000       0.00000       0.00000       0.00000       0.00000       0.00000       0.00000  
