recall.rec: written by SWAT+ editor v2.0.0 on 2022-02-14 13:07
26
    jday        mo    day_mo       iyr    ob_typ           ob_name           flo           sed         ptl_n         ptl_p         no3_n         sol_p          chla         nh3_n         no2_n       cbn_bod           oxy          sand          silt          clay        sm_agg        lg_agg        gravel           tmp  
       1         1         1      1994    recall           pt00010       0.00000       0.00000       0.00000       0.00000       0.00000       0.00000       0.00000       0.00000       0.00000       0.00000       0.00000       0.00000       0.00000       0.00000       0.00000       0.00000       0.00000       0.00000  
       2         2         1      1994    recall           pt00010       0.00000       0.00000       0.00000       0.00000       0.00000       0.00000       0.00000       0.00000       0.00000       0.00000       0.00000       0.00000       0.00000       0.00000       0.00000       0.00000       0.00000       0.00000  
       3         3         1      1994    recall           pt00010       0.00000       0.00000       0.00000       0.00000       0.00000       0.00000       0.00000       0.00000       0.00000       0.00000       0.00000       0.00000       0.00000       0.00000       0.00000       0.00000       0.00000       0.00000  
       4         4         1      1994    recall           pt00010       0.00000       0.00000       0.00000       0.00000       0.00000       0.00000       0.00000       0.00000       0.00000       0.00000       0.00000       0.00000       0.00000       0.00000       0.00000       0.00000       0.00000       0.00000  
       5         5         1      1994    recall           pt00010       0.00000       0.00000       0.00000       0.00000       0.00000       0.00000       0.00000       0.00000       0.00000       0.00000       0.00000       0.00000       0.00000       0.00000       0.00000       0.00000       0.00000       0.00000  
       6         6         1      1994    recall           pt00010       0.00000       0.00000       0.00000       0.00000       0.00000       0.00000       0.00000       0.00000       0.00000       0.00000       0.00000       0.00000       0.00000       0.00000       0.00000       0.00000       0.00000       0.00000  
       7         7         1      1994    recall           pt00010       0.00000       0.00000       0.00000       0.00000       0.00000       0.00000       0.00000       0.00000       0.00000       0.00000       0.00000       0.00000       0.00000       0.00000       0.00000       0.00000       0.00000       0.00000  
       8         8         1      1994    recall           pt00010       0.00000       0.00000       0.00000       0.00000       0.00000       0.00000       0.00000       0.00000       0.00000       0.00000       0.00000       0.00000       0.00000       0.00000       0.00000       0.00000       0.00000       0.00000  
       9         9         1      1994    recall           pt00010       0.00000       0.00000       0.00000       0.00000       0.00000       0.00000       0.00000       0.00000       0.00000       0.00000       0.00000       0.00000       0.00000       0.00000       0.00000       0.00000       0.00000       0.00000  
      10        10         1      1994    recall           pt00010       0.00000       0.00000       0.00000       0.00000       0.00000       0.00000       0.00000       0.00000       0.00000       0.00000       0.00000       0.00000       0.00000       0.00000       0.00000       0.00000       0.00000       0.00000  
      11        11         1      1994    recall           pt00010       0.00000       0.00000       0.00000       0.00000       0.00000       0.00000       0.00000       0.00000       0.00000       0.00000       0.00000       0.00000       0.00000       0.00000       0.00000       0.00000       0.00000       0.00000  
      12        12         1      1994    recall           pt00010       0.00000       0.00000       0.00000       0.00000       0.00000       0.00000       0.00000       0.00000       0.00000       0.00000       0.00000       0.00000       0.00000       0.00000       0.00000       0.00000       0.00000       0.00000  
       1         1         1      1995    recall           pt00010       0.00000       0.00000       0.00000       0.00000       0.00000       0.00000       0.00000       0.00000       0.00000       0.00000       0.00000       0.00000       0.00000       0.00000       0.00000       0.00000       0.00000       0.00000  
       2         2         1      1995    recall           pt00010       0.00000       0.00000       0.00000       0.00000       0.00000       0.00000       0.00000       0.00000       0.00000       0.00000       0.00000       0.00000       0.00000       0.00000       0.00000       0.00000       0.00000       0.00000  
       3         3         1      1995    recall           pt00010       0.00000       0.00000       0.00000       0.00000       0.00000       0.00000       0.00000       0.00000       0.00000       0.00000       0.00000       0.00000       0.00000       0.00000       0.00000       0.00000       0.00000       0.00000  
       4         4         1      1995    recall           pt00010       0.00000       0.00000       0.00000       0.00000       0.00000       0.00000       0.00000       0.00000       0.00000       0.00000       0.00000       0.00000       0.00000       0.00000       0.00000       0.00000       0.00000       0.00000  
       5         5         1      1995    recall           pt00010       0.00000       0.00000       0.00000       0.00000       0.00000       0.00000       0.00000       0.00000       0.00000       0.00000       0.00000       0.00000       0.00000       0.00000       0.00000       0.00000       0.00000       0.00000  
       6         6         1      1995    recall           pt00010       0.00000       0.00000       0.00000       0.00000       0.00000       0.00000       0.00000       0.00000       0.00000       0.00000       0.00000       0.00000       0.00000       0.00000       0.00000       0.00000       0.00000       0.00000  
       7         7         1      1995    recall           pt00010       0.00000       0.00000       0.00000       0.00000       0.00000       0.00000       0.00000       0.00000       0.00000       0.00000       0.00000       0.00000       0.00000       0.00000       0.00000       0.00000       0.00000       0.00000  
       8         8         1      1995    recall           pt00010       0.00000       0.00000       0.00000       0.00000       0.00000       0.00000       0.00000       0.00000       0.00000       0.00000       0.00000       0.00000       0.00000       0.00000       0.00000       0.00000       0.00000       0.00000  
       9         9         1      1995    recall           pt00010       0.00000       0.00000       0.00000       0.00000       0.00000       0.00000       0.00000       0.00000       0.00000       0.00000       0.00000       0.00000       0.00000       0.00000       0.00000       0.00000       0.00000       0.00000  
      10        10         1      1995    recall           pt00010       0.00000       0.00000       0.00000       0.00000       0.00000       0.00000       0.00000       0.00000       0.00000       0.00000       0.00000       0.00000       0.00000       0.00000       0.00000       0.00000       0.00000       0.00000  
      11        11         1      1995    recall           pt00010       0.00000       0.00000       0.00000       0.00000       0.00000       0.00000       0.00000       0.00000       0.00000       0.00000       0.00000       0.00000       0.00000       0.00000       0.00000       0.00000       0.00000       0.00000  
      12        12         1      1995    recall           pt00010       0.00000       0.00000       0.00000       0.00000       0.00000       0.00000       0.00000       0.00000       0.00000       0.00000       0.00000       0.00000       0.00000       0.00000       0.00000       0.00000       0.00000       0.00000  
       1         1         1      1996    recall           pt00010       0.00000       0.00000       0.00000       0.00000       0.00000       0.00000       0.00000       0.00000       0.00000       0.00000       0.00000       0.00000       0.00000       0.00000       0.00000       0.00000       0.00000       0.00000  
       2         2         1      1996    recall           pt00010       0.00000       0.00000       0.00000       0.00000       0.00000       0.00000       0.00000       0.00000       0.00000       0.00000       0.00000       0.00000       0.00000       0.00000       0.00000       0.00000       0.00000       0.00000  
       3         3         1      1996    recall           pt00010       0.00000       0.00000       0.00000       0.00000       0.00000       0.00000       0.00000       0.00000       0.00000       0.00000       0.00000       0.00000       0.00000       0.00000       0.00000       0.00000       0.00000       0.00000  
       4         4         1      1996    recall           pt00010       0.00000       0.00000       0.00000       0.00000       0.00000       0.00000       0.00000       0.00000       0.00000       0.00000       0.00000       0.00000       0.00000       0.00000       0.00000       0.00000       0.00000       0.00000  
       5         5         1      1996    recall           pt00010       0.00000       0.00000       0.00000       0.00000       0.00000       0.00000       0.00000       0.00000       0.00000       0.00000       0.00000       0.00000       0.00000       0.00000       0.00000       0.00000       0.00000       0.00000  
       6         6         1      1996    recall           pt00010       0.00000       0.00000       0.00000       0.00000       0.00000       0.00000       0.00000       0.00000       0.00000       0.00000       0.00000       0.00000       0.00000       0.00000       0.00000       0.00000       0.00000       0.00000  
       7         7         1      1996    recall           pt00010       0.00000       0.00000       0.00000       0.00000       0.00000       0.00000       0.00000       0.00000       0.00000       0.00000       0.00000       0.00000       0.00000       0.00000       0.00000       0.00000       0.00000       0.00000  
       8         8         1      1996    recall           pt00010       0.00000       0.00000       0.00000       0.00000       0.00000       0.00000       0.00000       0.00000       0.00000       0.00000       0.00000       0.00000       0.00000       0.00000       0.00000       0.00000       0.00000       0.00000  
       9         9         1      1996    recall           pt00010       0.00000       0.00000       0.00000       0.00000       0.00000       0.00000       0.00000       0.00000       0.00000       0.00000       0.00000       0.00000       0.00000       0.00000       0.00000       0.00000       0.00000       0.00000  
      10        10         1      1996    recall           pt00010       0.00000       0.00000       0.00000       0.00000       0.00000       0.00000       0.00000       0.00000       0.00000       0.00000       0.00000       0.00000       0.00000       0.00000       0.00000       0.00000       0.00000       0.00000  
      11        11         1      1996    recall           pt00010       0.00000       0.00000       0.00000       0.00000       0.00000       0.00000       0.00000       0.00000       0.00000       0.00000       0.00000       0.00000       0.00000       0.00000       0.00000       0.00000       0.00000       0.00000  
      12        12         1      1996    recall           pt00010       0.00000       0.00000       0.00000       0.00000       0.00000       0.00000       0.00000       0.00000       0.00000       0.00000       0.00000       0.00000       0.00000       0.00000       0.00000       0.00000       0.00000       0.00000  
       1         1         1      1997    recall           pt00010       0.00000       0.00000       0.00000       0.00000       0.00000       0.00000       0.00000       0.00000       0.00000       0.00000       0.00000       0.00000       0.00000       0.00000       0.00000       0.00000       0.00000       0.00000  
       2         2         1      1997    recall           pt00010       0.00000       0.00000       0.00000       0.00000       0.00000       0.00000       0.00000       0.00000       0.00000       0.00000       0.00000       0.00000       0.00000       0.00000       0.00000       0.00000       0.00000       0.00000  
       3         3         1      1997    recall           pt00010       0.00000       0.00000       0.00000       0.00000       0.00000       0.00000       0.00000       0.00000       0.00000       0.00000       0.00000       0.00000       0.00000       0.00000       0.00000       0.00000       0.00000       0.00000  
       4         4         1      1997    recall           pt00010       0.00000       0.00000       0.00000       0.00000       0.00000       0.00000       0.00000       0.00000       0.00000       0.00000       0.00000       0.00000       0.00000       0.00000       0.00000       0.00000       0.00000       0.00000  
       5         5         1      1997    recall           pt00010       0.00000       0.00000       0.00000       0.00000       0.00000       0.00000       0.00000       0.00000       0.00000       0.00000       0.00000       0.00000       0.00000       0.00000       0.00000       0.00000       0.00000       0.00000  
       6         6         1      1997    recall           pt00010       0.00000       0.00000       0.00000       0.00000       0.00000       0.00000       0.00000       0.00000       0.00000       0.00000       0.00000       0.00000       0.00000       0.00000       0.00000       0.00000       0.00000       0.00000  
       7         7         1      1997    recall           pt00010       0.00000       0.00000       0.00000       0.00000       0.00000       0.00000       0.00000       0.00000       0.00000       0.00000       0.00000       0.00000       0.00000       0.00000       0.00000       0.00000       0.00000       0.00000  
       8         8         1      1997    recall           pt00010       0.00000       0.00000       0.00000       0.00000       0.00000       0.00000       0.00000       0.00000       0.00000       0.00000       0.00000       0.00000       0.00000       0.00000       0.00000       0.00000       0.00000       0.00000  
       9         9         1      1997    recall           pt00010       0.00000       0.00000       0.00000       0.00000       0.00000       0.00000       0.00000       0.00000       0.00000       0.00000       0.00000       0.00000       0.00000       0.00000       0.00000       0.00000       0.00000       0.00000  
      10        10         1      1997    recall           pt00010       0.00000       0.00000       0.00000       0.00000       0.00000       0.00000       0.00000       0.00000       0.00000       0.00000       0.00000       0.00000       0.00000       0.00000       0.00000       0.00000       0.00000       0.00000  
      11        11         1      1997    recall           pt00010       0.00000       0.00000       0.00000       0.00000       0.00000       0.00000       0.00000       0.00000       0.00000       0.00000       0.00000       0.00000       0.00000       0.00000       0.00000       0.00000       0.00000       0.00000  
      12        12         1      1997    recall           pt00010       0.00000       0.00000       0.00000       0.00000       0.00000       0.00000       0.00000       0.00000       0.00000       0.00000       0.00000       0.00000       0.00000       0.00000       0.00000       0.00000       0.00000       0.00000  
       1         1         1      1998    recall           pt00010       8.21373       0.00007       0.02957       0.01232       0.00986       0.01232       0.00000       0.05914       0.00000       0.08214       0.00000       0.00000       0.00000       0.00000       0.00000       0.00000       0.00000       0.00000  
       2         2         1      1998    recall           pt00010       8.21373       0.00007       0.02957       0.01232       0.00986       0.01232       0.00000       0.05914       0.00000       0.08214       0.00000       0.00000       0.00000       0.00000       0.00000       0.00000       0.00000       0.00000  
       3         3         1      1998    recall           pt00010       8.21373       0.00007       0.02957       0.01232       0.00986       0.01232       0.00000       0.05914       0.00000       0.08214       0.00000       0.00000       0.00000       0.00000       0.00000       0.00000       0.00000       0.00000  
       4         4         1      1998    recall           pt00010       8.21373       0.00007       0.02957       0.01232       0.00986       0.01232       0.00000       0.05914       0.00000       0.08214       0.00000       0.00000       0.00000       0.00000       0.00000       0.00000       0.00000       0.00000  
       5         5         1      1998    recall           pt00010       8.21373       0.00007       0.02957       0.01232       0.00986       0.01232       0.00000       0.05914       0.00000       0.08214       0.00000       0.00000       0.00000       0.00000       0.00000       0.00000       0.00000       0.00000  
       6         6         1      1998    recall           pt00010       8.21373       0.00007       0.02957       0.01232       0.00986       0.01232       0.00000       0.05914       0.00000       0.08214       0.00000       0.00000       0.00000       0.00000       0.00000       0.00000       0.00000       0.00000  
       7         7         1      1998    recall           pt00010       8.21373       0.00007       0.02957       0.01232       0.00986       0.01232       0.00000       0.05914       0.00000       0.08214       0.00000       0.00000       0.00000       0.00000       0.00000       0.00000       0.00000       0.00000  
       8         8         1      1998    recall           pt00010       8.21373       0.00007       0.02957       0.01232       0.00986       0.01232       0.00000       0.05914       0.00000       0.08214       0.00000       0.00000       0.00000       0.00000       0.00000       0.00000       0.00000       0.00000  
       9         9         1      1998    recall           pt00010       8.21373       0.00007       0.02957       0.01232       0.00986       0.01232       0.00000       0.05914       0.00000       0.08214       0.00000       0.00000       0.00000       0.00000       0.00000       0.00000       0.00000       0.00000  
      10        10         1      1998    recall           pt00010       8.21373       0.00007       0.02957       0.01232       0.00986       0.01232       0.00000       0.05914       0.00000       0.08214       0.00000       0.00000       0.00000       0.00000       0.00000       0.00000       0.00000       0.00000  
      11        11         1      1998    recall           pt00010       8.21373       0.00007       0.02957       0.01232       0.00986       0.01232       0.00000       0.05914       0.00000       0.08214       0.00000       0.00000       0.00000       0.00000       0.00000       0.00000       0.00000       0.00000  
      12        12         1      1998    recall           pt00010       8.21373       0.00007       0.02957       0.01232       0.00986       0.01232       0.00000       0.05914       0.00000       0.08214       0.00000       0.00000       0.00000       0.00000       0.00000       0.00000       0.00000       0.00000  
       1         1         1      1999    recall           pt00010       8.21373       0.00007       0.03844       0.01602       0.01281       0.01602       0.00000       0.07688       0.00000       0.10678       0.00000       0.00000       0.00000       0.00000       0.00000       0.00000       0.00000       0.00000  
       2         2         1      1999    recall           pt00010       8.21373       0.00007       0.03844       0.01602       0.01281       0.01602       0.00000       0.07688       0.00000       0.10678       0.00000       0.00000       0.00000       0.00000       0.00000       0.00000       0.00000       0.00000  
       3         3         1      1999    recall           pt00010       8.21373       0.00007       0.03844       0.01602       0.01281       0.01602       0.00000       0.07688       0.00000       0.10678       0.00000       0.00000       0.00000       0.00000       0.00000       0.00000       0.00000       0.00000  
       4         4         1      1999    recall           pt00010       8.21373       0.00007       0.03844       0.01602       0.01281       0.01602       0.00000       0.07688       0.00000       0.10678       0.00000       0.00000       0.00000       0.00000       0.00000       0.00000       0.00000       0.00000  
       5         5         1      1999    recall           pt00010       8.21373       0.00007       0.03844       0.01602       0.01281       0.01602       0.00000       0.07688       0.00000       0.10678       0.00000       0.00000       0.00000       0.00000       0.00000       0.00000       0.00000       0.00000  
       6         6         1      1999    recall           pt00010       8.21373       0.00007       0.03844       0.01602       0.01281       0.01602       0.00000       0.07688       0.00000       0.10678       0.00000       0.00000       0.00000       0.00000       0.00000       0.00000       0.00000       0.00000  
       7         7         1      1999    recall           pt00010       8.21373       0.00007       0.03844       0.01602       0.01281       0.01602       0.00000       0.07688       0.00000       0.10678       0.00000       0.00000       0.00000       0.00000       0.00000       0.00000       0.00000       0.00000  
       8         8         1      1999    recall           pt00010       8.21373       0.00007       0.03844       0.01602       0.01281       0.01602       0.00000       0.07688       0.00000       0.10678       0.00000       0.00000       0.00000       0.00000       0.00000       0.00000       0.00000       0.00000  
       9         9         1      1999    recall           pt00010       8.21373       0.00007       0.03844       0.01602       0.01281       0.01602       0.00000       0.07688       0.00000       0.10678       0.00000       0.00000       0.00000       0.00000       0.00000       0.00000       0.00000       0.00000  
      10        10         1      1999    recall           pt00010       8.21373       0.00007       0.03844       0.01602       0.01281       0.01602       0.00000       0.07688       0.00000       0.10678       0.00000       0.00000       0.00000       0.00000       0.00000       0.00000       0.00000       0.00000  
      11        11         1      1999    recall           pt00010       8.21373       0.00007       0.03844       0.01602       0.01281       0.01602       0.00000       0.07688       0.00000       0.10678       0.00000       0.00000       0.00000       0.00000       0.00000       0.00000       0.00000       0.00000  
      12        12         1      1999    recall           pt00010       8.21373       0.00007       0.03844       0.01602       0.01281       0.01602       0.00000       0.07688       0.00000       0.10678       0.00000       0.00000       0.00000       0.00000       0.00000       0.00000       0.00000       0.00000  
       1         1         1      2000    recall           pt00010       0.00000       0.00000       0.00000       0.00000       0.00000       0.00000       0.00000       0.00000       0.00000       0.00000       0.00000       0.00000       0.00000       0.00000       0.00000       0.00000       0.00000       0.00000  
       2         2         1      2000    recall           pt00010       0.00000       0.00000       0.00000       0.00000       0.00000       0.00000       0.00000       0.00000       0.00000       0.00000       0.00000       0.00000       0.00000       0.00000       0.00000       0.00000       0.00000       0.00000  
       3         3         1      2000    recall           pt00010       0.00000       0.00000       0.00000       0.00000       0.00000       0.00000       0.00000       0.00000       0.00000       0.00000       0.00000       0.00000       0.00000       0.00000       0.00000       0.00000       0.00000       0.00000  
       4         4         1      2000    recall           pt00010       0.00000       0.00000       0.00000       0.00000       0.00000       0.00000       0.00000       0.00000       0.00000       0.00000       0.00000       0.00000       0.00000       0.00000       0.00000       0.00000       0.00000       0.00000  
       5         5         1      2000    recall           pt00010       0.00000       0.00000       0.00000       0.00000       0.00000       0.00000       0.00000       0.00000       0.00000       0.00000       0.00000       0.00000       0.00000       0.00000       0.00000       0.00000       0.00000       0.00000  
       6         6         1      2000    recall           pt00010       0.00000       0.00000       0.00000       0.00000       0.00000       0.00000       0.00000       0.00000       0.00000       0.00000       0.00000       0.00000       0.00000       0.00000       0.00000       0.00000       0.00000       0.00000  
       7         7         1      2000    recall           pt00010       0.00000       0.00000       0.00000       0.00000       0.00000       0.00000       0.00000       0.00000       0.00000       0.00000       0.00000       0.00000       0.00000       0.00000       0.00000       0.00000       0.00000       0.00000  
       8         8         1      2000    recall           pt00010       0.00000       0.00000       0.00000       0.00000       0.00000       0.00000       0.00000       0.00000       0.00000       0.00000       0.00000       0.00000       0.00000       0.00000       0.00000       0.00000       0.00000       0.00000  
       9         9         1      2000    recall           pt00010       0.00000       0.00000       0.00000       0.00000       0.00000       0.00000       0.00000       0.00000       0.00000       0.00000       0.00000       0.00000       0.00000       0.00000       0.00000       0.00000       0.00000       0.00000  
      10        10         1      2000    recall           pt00010       0.00000       0.00000       0.00000       0.00000       0.00000       0.00000       0.00000       0.00000       0.00000       0.00000       0.00000       0.00000       0.00000       0.00000       0.00000       0.00000       0.00000       0.00000  
      11        11         1      2000    recall           pt00010       0.00000       0.00000       0.00000       0.00000       0.00000       0.00000       0.00000       0.00000       0.00000       0.00000       0.00000       0.00000       0.00000       0.00000       0.00000       0.00000       0.00000       0.00000  
      12        12         1      2000    recall           pt00010       0.00000       0.00000       0.00000       0.00000       0.00000       0.00000       0.00000       0.00000       0.00000       0.00000       0.00000       0.00000       0.00000       0.00000       0.00000       0.00000       0.00000       0.00000  
       1         1         1      2001    recall           pt00010       5.47582       0.00005       0.01380       0.00575       0.00460       0.00575       0.00000       0.02760       0.00000       0.03833       0.00000       0.00000       0.00000       0.00000       0.00000       0.00000       0.00000       0.00000  
       2         2         1      2001    recall           pt00010       5.47582       0.00005       0.01380       0.00575       0.00460       0.00575       0.00000       0.02760       0.00000       0.03833       0.00000       0.00000       0.00000       0.00000       0.00000       0.00000       0.00000       0.00000  
       3         3         1      2001    recall           pt00010       5.47582       0.00005       0.01380       0.00575       0.00460       0.00575       0.00000       0.02760       0.00000       0.03833       0.00000       0.00000       0.00000       0.00000       0.00000       0.00000       0.00000       0.00000  
       4         4         1      2001    recall           pt00010       5.47582       0.00005       0.01380       0.00575       0.00460       0.00575       0.00000       0.02760       0.00000       0.03833       0.00000       0.00000       0.00000       0.00000       0.00000       0.00000       0.00000       0.00000  
       5         5         1      2001    recall           pt00010       5.47582       0.00005       0.01380       0.00575       0.00460       0.00575       0.00000       0.02760       0.00000       0.03833       0.00000       0.00000       0.00000       0.00000       0.00000       0.00000       0.00000       0.00000  
       6         6         1      2001    recall           pt00010       5.47582       0.00005       0.01380       0.00575       0.00460       0.00575       0.00000       0.02760       0.00000       0.03833       0.00000       0.00000       0.00000       0.00000       0.00000       0.00000       0.00000       0.00000  
       7         7         1      2001    recall           pt00010       5.47582       0.00005       0.01380       0.00575       0.00460       0.00575       0.00000       0.02760       0.00000       0.03833       0.00000       0.00000       0.00000       0.00000       0.00000       0.00000       0.00000       0.00000  
       8         8         1      2001    recall           pt00010       5.47582       0.00005       0.01380       0.00575       0.00460       0.00575       0.00000       0.02760       0.00000       0.03833       0.00000       0.00000       0.00000       0.00000       0.00000       0.00000       0.00000       0.00000  
       9         9         1      2001    recall           pt00010       5.47582       0.00005       0.01380       0.00575       0.00460       0.00575       0.00000       0.02760       0.00000       0.03833       0.00000       0.00000       0.00000       0.00000       0.00000       0.00000       0.00000       0.00000  
      10        10         1      2001    recall           pt00010       5.47582       0.00005       0.01380       0.00575       0.00460       0.00575       0.00000       0.02760       0.00000       0.03833       0.00000       0.00000       0.00000       0.00000       0.00000       0.00000       0.00000       0.00000  
      11        11         1      2001    recall           pt00010       5.47582       0.00005       0.01380       0.00575       0.00460       0.00575       0.00000       0.02760       0.00000       0.03833       0.00000       0.00000       0.00000       0.00000       0.00000       0.00000       0.00000       0.00000  
      12        12         1      2001    recall           pt00010       5.47582       0.00005       0.01380       0.00575       0.00460       0.00575       0.00000       0.02760       0.00000       0.03833       0.00000       0.00000       0.00000       0.00000       0.00000       0.00000       0.00000       0.00000  
       1         1         1      2002    recall           pt00010       2.73791       0.00003       0.00690       0.00287       0.00230       0.00287       0.00000       0.01380       0.00000       0.01917       0.00000       0.00000       0.00000       0.00000       0.00000       0.00000       0.00000       0.00000  
       2         2         1      2002    recall           pt00010       2.73791       0.00003       0.00690       0.00287       0.00230       0.00287       0.00000       0.01380       0.00000       0.01917       0.00000       0.00000       0.00000       0.00000       0.00000       0.00000       0.00000       0.00000  
       3         3         1      2002    recall           pt00010       2.73791       0.00003       0.00690       0.00287       0.00230       0.00287       0.00000       0.01380       0.00000       0.01917       0.00000       0.00000       0.00000       0.00000       0.00000       0.00000       0.00000       0.00000  
       4         4         1      2002    recall           pt00010       2.73791       0.00003       0.00690       0.00287       0.00230       0.00287       0.00000       0.01380       0.00000       0.01917       0.00000       0.00000       0.00000       0.00000       0.00000       0.00000       0.00000       0.00000  
       5         5         1      2002    recall           pt00010       2.73791       0.00003       0.00690       0.00287       0.00230       0.00287       0.00000       0.01380       0.00000       0.01917       0.00000       0.00000       0.00000       0.00000       0.00000       0.00000       0.00000       0.00000  
       6         6         1      2002    recall           pt00010       2.73791       0.00003       0.00690       0.00287       0.00230       0.00287       0.00000       0.01380       0.00000       0.01917       0.00000       0.00000       0.00000       0.00000       0.00000       0.00000       0.00000       0.00000  
       7         7         1      2002    recall           pt00010       2.73791       0.00003       0.00690       0.00287       0.00230       0.00287       0.00000       0.01380       0.00000       0.01917       0.00000       0.00000       0.00000       0.00000       0.00000       0.00000       0.00000       0.00000  
       8         8         1      2002    recall           pt00010       2.73791       0.00003       0.00690       0.00287       0.00230       0.00287       0.00000       0.01380       0.00000       0.01917       0.00000       0.00000       0.00000       0.00000       0.00000       0.00000       0.00000       0.00000  
       9         9         1      2002    recall           pt00010       2.73791       0.00003       0.00690       0.00287       0.00230       0.00287       0.00000       0.01380       0.00000       0.01917       0.00000       0.00000       0.00000       0.00000       0.00000       0.00000       0.00000       0.00000  
      10        10         1      2002    recall           pt00010       2.73791       0.00003       0.00690       0.00287       0.00230       0.00287       0.00000       0.01380       0.00000       0.01917       0.00000       0.00000       0.00000       0.00000       0.00000       0.00000       0.00000       0.00000  
      11        11         1      2002    recall           pt00010       2.73791       0.00003       0.00690       0.00287       0.00230       0.00287       0.00000       0.01380       0.00000       0.01917       0.00000       0.00000       0.00000       0.00000       0.00000       0.00000       0.00000       0.00000  
      12        12         1      2002    recall           pt00010       2.73791       0.00003       0.00690       0.00287       0.00230       0.00287       0.00000       0.01380       0.00000       0.01917       0.00000       0.00000       0.00000       0.00000       0.00000       0.00000       0.00000       0.00000  
       1         1         1      2003    recall           pt00010       2.73791       0.00002       0.00976       0.00407       0.00325       0.00407       0.00000       0.01952       0.00000       0.02711       0.00000       0.00000       0.00000       0.00000       0.00000       0.00000       0.00000       0.00000  
       2         2         1      2003    recall           pt00010       2.73791       0.00002       0.00976       0.00407       0.00325       0.00407       0.00000       0.01952       0.00000       0.02711       0.00000       0.00000       0.00000       0.00000       0.00000       0.00000       0.00000       0.00000  
       3         3         1      2003    recall           pt00010       2.73791       0.00002       0.00976       0.00407       0.00325       0.00407       0.00000       0.01952       0.00000       0.02711       0.00000       0.00000       0.00000       0.00000       0.00000       0.00000       0.00000       0.00000  
       4         4         1      2003    recall           pt00010       2.73791       0.00002       0.00976       0.00407       0.00325       0.00407       0.00000       0.01952       0.00000       0.02711       0.00000       0.00000       0.00000       0.00000       0.00000       0.00000       0.00000       0.00000  
       5         5         1      2003    recall           pt00010       2.73791       0.00002       0.00976       0.00407       0.00325       0.00407       0.00000       0.01952       0.00000       0.02711       0.00000       0.00000       0.00000       0.00000       0.00000       0.00000       0.00000       0.00000  
       6         6         1      2003    recall           pt00010       2.73791       0.00002       0.00976       0.00407       0.00325       0.00407       0.00000       0.01952       0.00000       0.02711       0.00000       0.00000       0.00000       0.00000       0.00000       0.00000       0.00000       0.00000  
       7         7         1      2003    recall           pt00010       2.73791       0.00002       0.00976       0.00407       0.00325       0.00407       0.00000       0.01952       0.00000       0.02711       0.00000       0.00000       0.00000       0.00000       0.00000       0.00000       0.00000       0.00000  
       8         8         1      2003    recall           pt00010       2.73791       0.00002       0.00976       0.00407       0.00325       0.00407       0.00000       0.01952       0.00000       0.02711       0.00000       0.00000       0.00000       0.00000       0.00000       0.00000       0.00000       0.00000  
       9         9         1      2003    recall           pt00010       2.73791       0.00002       0.00976       0.00407       0.00325       0.00407       0.00000       0.01952       0.00000       0.02711       0.00000       0.00000       0.00000       0.00000       0.00000       0.00000       0.00000       0.00000  
      10        10         1      2003    recall           pt00010       2.73791       0.00002       0.00976       0.00407       0.00325       0.00407       0.00000       0.01952       0.00000       0.02711       0.00000       0.00000       0.00000       0.00000       0.00000       0.00000       0.00000       0.00000  
      11        11         1      2003    recall           pt00010       2.73791       0.00002       0.00976       0.00407       0.00325       0.00407       0.00000       0.01952       0.00000       0.02711       0.00000       0.00000       0.00000       0.00000       0.00000       0.00000       0.00000       0.00000  
      12        12         1      2003    recall           pt00010       2.73791       0.00002       0.00976       0.00407       0.00325       0.00407       0.00000       0.01952       0.00000       0.02711       0.00000       0.00000       0.00000       0.00000       0.00000       0.00000       0.00000       0.00000  
       1         1         1      2004    recall           pt00010       5.47582       0.00004       0.04496       0.01601       0.01807       0.00026       0.00000       0.00148       0.00055       0.05421       0.00000       0.00000       0.00000       0.00000       0.00000       0.00000       0.00000       0.00000  
       2         2         1      2004    recall           pt00010       5.47582       0.00004       0.04496       0.01601       0.01807       0.00026       0.00000       0.00148       0.00055       0.05421       0.00000       0.00000       0.00000       0.00000       0.00000       0.00000       0.00000       0.00000  
       3         3         1      2004    recall           pt00010       5.47582       0.00004       0.04496       0.01601       0.01807       0.00026       0.00000       0.00148       0.00055       0.05421       0.00000       0.00000       0.00000       0.00000       0.00000       0.00000       0.00000       0.00000  
       4         4         1      2004    recall           pt00010       5.47582       0.00004       0.04496       0.01601       0.01807       0.00026       0.00000       0.00148       0.00055       0.05421       0.00000       0.00000       0.00000       0.00000       0.00000       0.00000       0.00000       0.00000  
       5         5         1      2004    recall           pt00010       5.47582       0.00004       0.04496       0.01601       0.01807       0.00026       0.00000       0.00148       0.00055       0.05421       0.00000       0.00000       0.00000       0.00000       0.00000       0.00000       0.00000       0.00000  
       6         6         1      2004    recall           pt00010       5.47582       0.00004       0.04496       0.01601       0.01807       0.00026       0.00000       0.00148       0.00055       0.05421       0.00000       0.00000       0.00000       0.00000       0.00000       0.00000       0.00000       0.00000  
       7         7         1      2004    recall           pt00010       5.47582       0.00004       0.04496       0.01601       0.01807       0.00026       0.00000       0.00148       0.00055       0.05421       0.00000       0.00000       0.00000       0.00000       0.00000       0.00000       0.00000       0.00000  
       8         8         1      2004    recall           pt00010       5.47582       0.00004       0.04496       0.01601       0.01807       0.00026       0.00000       0.00148       0.00055       0.05421       0.00000       0.00000       0.00000       0.00000       0.00000       0.00000       0.00000       0.00000  
       9         9         1      2004    recall           pt00010       5.47582       0.00004       0.04496       0.01601       0.01807       0.00026       0.00000       0.00148       0.00055       0.05421       0.00000       0.00000       0.00000       0.00000       0.00000       0.00000       0.00000       0.00000  
      10        10         1      2004    recall           pt00010       5.47582       0.00004       0.04496       0.01601       0.01807       0.00026       0.00000       0.00148       0.00055       0.05421       0.00000       0.00000       0.00000       0.00000       0.00000       0.00000       0.00000       0.00000  
      11        11         1      2004    recall           pt00010       5.47582       0.00004       0.04496       0.01601       0.01807       0.00026       0.00000       0.00148       0.00055       0.05421       0.00000       0.00000       0.00000       0.00000       0.00000       0.00000       0.00000       0.00000  
      12        12         1      2004    recall           pt00010       5.47582       0.00004       0.04496       0.01601       0.01807       0.00026       0.00000       0.00148       0.00055       0.05421       0.00000       0.00000       0.00000       0.00000       0.00000       0.00000       0.00000       0.00000  
       1         1         1      2005    recall           pt00010       8.21373       0.00123       0.44354       0.18481       0.14785       0.18481       0.00000       0.88708       0.00000       1.23206       0.00000       0.00000       0.00000       0.00000       0.00000       0.00000       0.00000       0.00000  
       2         2         1      2005    recall           pt00010       8.21373       0.00123       0.44354       0.18481       0.14785       0.18481       0.00000       0.88708       0.00000       1.23206       0.00000       0.00000       0.00000       0.00000       0.00000       0.00000       0.00000       0.00000  
       3         3         1      2005    recall           pt00010       8.21373       0.00123       0.44354       0.18481       0.14785       0.18481       0.00000       0.88708       0.00000       1.23206       0.00000       0.00000       0.00000       0.00000       0.00000       0.00000       0.00000       0.00000  
       4         4         1      2005    recall           pt00010       8.21373       0.00123       0.44354       0.18481       0.14785       0.18481       0.00000       0.88708       0.00000       1.23206       0.00000       0.00000       0.00000       0.00000       0.00000       0.00000       0.00000       0.00000  
       5         5         1      2005    recall           pt00010       8.21373       0.00123       0.44354       0.18481       0.14785       0.18481       0.00000       0.88708       0.00000       1.23206       0.00000       0.00000       0.00000       0.00000       0.00000       0.00000       0.00000       0.00000  
       6         6         1      2005    recall           pt00010       8.21373       0.00123       0.44354       0.18481       0.14785       0.18481       0.00000       0.88708       0.00000       1.23206       0.00000       0.00000       0.00000       0.00000       0.00000       0.00000       0.00000       0.00000  
       7         7         1      2005    recall           pt00010       8.21373       0.00123       0.44354       0.18481       0.14785       0.18481       0.00000       0.88708       0.00000       1.23206       0.00000       0.00000       0.00000       0.00000       0.00000       0.00000       0.00000       0.00000  
       8         8         1      2005    recall           pt00010       8.21373       0.00123       0.44354       0.18481       0.14785       0.18481       0.00000       0.88708       0.00000       1.23206       0.00000       0.00000       0.00000       0.00000       0.00000       0.00000       0.00000       0.00000  
       9         9         1      2005    recall           pt00010       8.21373       0.00123       0.44354       0.18481       0.14785       0.18481       0.00000       0.88708       0.00000       1.23206       0.00000       0.00000       0.00000       0.00000       0.00000       0.00000       0.00000       0.00000  
      10        10         1      2005    recall           pt00010       8.21373       0.00123       0.44354       0.18481       0.14785       0.18481       0.00000       0.88708       0.00000       1.23206       0.00000       0.00000       0.00000       0.00000       0.00000       0.00000       0.00000       0.00000  
      11        11         1      2005    recall           pt00010       8.21373       0.00123       0.44354       0.18481       0.14785       0.18481       0.00000       0.88708       0.00000       1.23206       0.00000       0.00000       0.00000       0.00000       0.00000       0.00000       0.00000       0.00000  
      12        12         1      2005    recall           pt00010       8.21373       0.00123       0.44354       0.18481       0.14785       0.18481       0.00000       0.88708       0.00000       1.23206       0.00000       0.00000       0.00000       0.00000       0.00000       0.00000       0.00000       0.00000  
       1         1         1      2006    recall           pt00010       5.47582       0.00013       0.00000       0.00000       0.00318       0.01829       0.00000       0.40521       0.00137       0.05476       0.00000       0.00000       0.00000       0.00000       0.00000       0.00000       0.00000       0.00000  
       2         2         1      2006    recall           pt00010       5.47582       0.00013       0.00000       0.00000       0.00318       0.01829       0.00000       0.40521       0.00137       0.05476       0.00000       0.00000       0.00000       0.00000       0.00000       0.00000       0.00000       0.00000  
       3         3         1      2006    recall           pt00010       5.47582       0.00013       0.00000       0.00000       0.00318       0.01829       0.00000       0.40521       0.00137       0.05476       0.00000       0.00000       0.00000       0.00000       0.00000       0.00000       0.00000       0.00000  
       4         4         1      2006    recall           pt00010       5.47582       0.00013       0.00000       0.00000       0.00318       0.01829       0.00000       0.40521       0.00137       0.05476       0.00000       0.00000       0.00000       0.00000       0.00000       0.00000       0.00000       0.00000  
       5         5         1      2006    recall           pt00010       5.47582       0.00013       0.00000       0.00000       0.00318       0.01829       0.00000       0.40521       0.00137       0.05476       0.00000       0.00000       0.00000       0.00000       0.00000       0.00000       0.00000       0.00000  
       6         6         1      2006    recall           pt00010       5.47582       0.00013       0.00000       0.00000       0.00318       0.01829       0.00000       0.40521       0.00137       0.05476       0.00000       0.00000       0.00000       0.00000       0.00000       0.00000       0.00000       0.00000  
       7         7         1      2006    recall           pt00010       5.47582       0.00013       0.00000       0.00000       0.00318       0.01829       0.00000       0.40521       0.00137       0.05476       0.00000       0.00000       0.00000       0.00000       0.00000       0.00000       0.00000       0.00000  
       8         8         1      2006    recall           pt00010       5.47582       0.00013       0.00000       0.00000       0.00318       0.01829       0.00000       0.40521       0.00137       0.05476       0.00000       0.00000       0.00000       0.00000       0.00000       0.00000       0.00000       0.00000  
       9         9         1      2006    recall           pt00010       5.47582       0.00013       0.00000       0.00000       0.00318       0.01829       0.00000       0.40521       0.00137       0.05476       0.00000       0.00000       0.00000       0.00000       0.00000       0.00000       0.00000       0.00000  
      10        10         1      2006    recall           pt00010       5.47582       0.00013       0.00000       0.00000       0.00318       0.01829       0.00000       0.40521       0.00137       0.05476       0.00000       0.00000       0.00000       0.00000       0.00000       0.00000       0.00000       0.00000  
      11        11         1      2006    recall           pt00010       5.47582       0.00013       0.00000       0.00000       0.00318       0.01829       0.00000       0.40521       0.00137       0.05476       0.00000       0.00000       0.00000       0.00000       0.00000       0.00000       0.00000       0.00000  
      12        12         1      2006    recall           pt00010       5.47582       0.00013       0.00000       0.00000       0.00318       0.01829       0.00000       0.40521       0.00137       0.05476       0.00000       0.00000       0.00000       0.00000       0.00000       0.00000       0.00000       0.00000  
       1         1         1      2007    recall           pt00010       5.47582       0.00011       0.01933       0.03132       0.04545       0.01139       0.00000       0.10404       0.00203       0.14237       0.00000       0.00000       0.00000       0.00000       0.00000       0.00000       0.00000       0.00000  
       2         2         1      2007    recall           pt00010       5.47582       0.00011       0.01933       0.03132       0.04545       0.01139       0.00000       0.10404       0.00203       0.14237       0.00000       0.00000       0.00000       0.00000       0.00000       0.00000       0.00000       0.00000  
       3         3         1      2007    recall           pt00010       5.47582       0.00011       0.01933       0.03132       0.04545       0.01139       0.00000       0.10404       0.00203       0.14237       0.00000       0.00000       0.00000       0.00000       0.00000       0.00000       0.00000       0.00000  
       4         4         1      2007    recall           pt00010       5.47582       0.00011       0.01933       0.03132       0.04545       0.01139       0.00000       0.10404       0.00203       0.14237       0.00000       0.00000       0.00000       0.00000       0.00000       0.00000       0.00000       0.00000  
       5         5         1      2007    recall           pt00010       5.47582       0.00011       0.01933       0.03132       0.04545       0.01139       0.00000       0.10404       0.00203       0.14237       0.00000       0.00000       0.00000       0.00000       0.00000       0.00000       0.00000       0.00000  
       6         6         1      2007    recall           pt00010       5.47582       0.00011       0.01933       0.03132       0.04545       0.01139       0.00000       0.10404       0.00203       0.14237       0.00000       0.00000       0.00000       0.00000       0.00000       0.00000       0.00000       0.00000  
       7         7         1      2007    recall           pt00010       5.47582       0.00011       0.01933       0.03132       0.04545       0.01139       0.00000       0.10404       0.00203       0.14237       0.00000       0.00000       0.00000       0.00000       0.00000       0.00000       0.00000       0.00000  
       8         8         1      2007    recall           pt00010       5.47582       0.00011       0.01933       0.03132       0.04545       0.01139       0.00000       0.10404       0.00203       0.14237       0.00000       0.00000       0.00000       0.00000       0.00000       0.00000       0.00000       0.00000  
       9         9         1      2007    recall           pt00010       5.47582       0.00011       0.01933       0.03132       0.04545       0.01139       0.00000       0.10404       0.00203       0.14237       0.00000       0.00000       0.00000       0.00000       0.00000       0.00000       0.00000       0.00000  
      10        10         1      2007    recall           pt00010       5.47582       0.00011       0.01933       0.03132       0.04545       0.01139       0.00000       0.10404       0.00203       0.14237       0.00000       0.00000       0.00000       0.00000       0.00000       0.00000       0.00000       0.00000  
      11        11         1      2007    recall           pt00010       5.47582       0.00011       0.01933       0.03132       0.04545       0.01139       0.00000       0.10404       0.00203       0.14237       0.00000       0.00000       0.00000       0.00000       0.00000       0.00000       0.00000       0.00000  
      12        12         1      2007    recall           pt00010       5.47582       0.00011       0.01933       0.03132       0.04545       0.01139       0.00000       0.10404       0.00203       0.14237       0.00000       0.00000       0.00000       0.00000       0.00000       0.00000       0.00000       0.00000  
       1         1         1      2008    recall           pt00010       8.21373       0.00030       0.51960       0.11458       0.00715       0.02669       0.00000       0.21356       0.00140       0.35319       0.00000       0.00000       0.00000       0.00000       0.00000       0.00000       0.00000       0.00000  
       2         2         1      2008    recall           pt00010       8.21373       0.00030       0.51960       0.11458       0.00715       0.02669       0.00000       0.21356       0.00140       0.35319       0.00000       0.00000       0.00000       0.00000       0.00000       0.00000       0.00000       0.00000  
       3         3         1      2008    recall           pt00010       8.21373       0.00030       0.51960       0.11458       0.00715       0.02669       0.00000       0.21356       0.00140       0.35319       0.00000       0.00000       0.00000       0.00000       0.00000       0.00000       0.00000       0.00000  
       4         4         1      2008    recall           pt00010       8.21373       0.00030       0.51960       0.11458       0.00715       0.02669       0.00000       0.21356       0.00140       0.35319       0.00000       0.00000       0.00000       0.00000       0.00000       0.00000       0.00000       0.00000  
       5         5         1      2008    recall           pt00010       8.21373       0.00030       0.51960       0.11458       0.00715       0.02669       0.00000       0.21356       0.00140       0.35319       0.00000       0.00000       0.00000       0.00000       0.00000       0.00000       0.00000       0.00000  
       6         6         1      2008    recall           pt00010       8.21373       0.00030       0.51960       0.11458       0.00715       0.02669       0.00000       0.21356       0.00140       0.35319       0.00000       0.00000       0.00000       0.00000       0.00000       0.00000       0.00000       0.00000  
       7         7         1      2008    recall           pt00010       8.21373       0.00030       0.51960       0.11458       0.00715       0.02669       0.00000       0.21356       0.00140       0.35319       0.00000       0.00000       0.00000       0.00000       0.00000       0.00000       0.00000       0.00000  
       8         8         1      2008    recall           pt00010       8.21373       0.00030       0.51960       0.11458       0.00715       0.02669       0.00000       0.21356       0.00140       0.35319       0.00000       0.00000       0.00000       0.00000       0.00000       0.00000       0.00000       0.00000  
       9         9         1      2008    recall           pt00010       8.21373       0.00030       0.51960       0.11458       0.00715       0.02669       0.00000       0.21356       0.00140       0.35319       0.00000       0.00000       0.00000       0.00000       0.00000       0.00000       0.00000       0.00000  
      10        10         1      2008    recall           pt00010       8.21373       0.00030       0.51960       0.11458       0.00715       0.02669       0.00000       0.21356       0.00140       0.35319       0.00000       0.00000       0.00000       0.00000       0.00000       0.00000       0.00000       0.00000  
      11        11         1      2008    recall           pt00010       8.21373       0.00030       0.51960       0.11458       0.00715       0.02669       0.00000       0.21356       0.00140       0.35319       0.00000       0.00000       0.00000       0.00000       0.00000       0.00000       0.00000       0.00000  
      12        12         1      2008    recall           pt00010       8.21373       0.00030       0.51960       0.11458       0.00715       0.02669       0.00000       0.21356       0.00140       0.35319       0.00000       0.00000       0.00000       0.00000       0.00000       0.00000       0.00000       0.00000  
       1         1         1      2009    recall           pt00010       5.47582       0.00012       0.20633       0.04194       0.00986       0.01719       0.00000       0.09254       0.00175       0.14785       0.00000       0.00000       0.00000       0.00000       0.00000       0.00000       0.00000       0.00000  
       2         2         1      2009    recall           pt00010       5.47582       0.00012       0.20633       0.04194       0.00986       0.01719       0.00000       0.09254       0.00175       0.14785       0.00000       0.00000       0.00000       0.00000       0.00000       0.00000       0.00000       0.00000  
       3         3         1      2009    recall           pt00010       5.47582       0.00012       0.20633       0.04194       0.00986       0.01719       0.00000       0.09254       0.00175       0.14785       0.00000       0.00000       0.00000       0.00000       0.00000       0.00000       0.00000       0.00000  
       4         4         1      2009    recall           pt00010       5.47582       0.00012       0.20633       0.04194       0.00986       0.01719       0.00000       0.09254       0.00175       0.14785       0.00000       0.00000       0.00000       0.00000       0.00000       0.00000       0.00000       0.00000  
       5         5         1      2009    recall           pt00010       5.47582       0.00012       0.20633       0.04194       0.00986       0.01719       0.00000       0.09254       0.00175       0.14785       0.00000       0.00000       0.00000       0.00000       0.00000       0.00000       0.00000       0.00000  
       6         6         1      2009    recall           pt00010       5.47582       0.00012       0.20633       0.04194       0.00986       0.01719       0.00000       0.09254       0.00175       0.14785       0.00000       0.00000       0.00000       0.00000       0.00000       0.00000       0.00000       0.00000  
       7         7         1      2009    recall           pt00010       5.47582       0.00012       0.20633       0.04194       0.00986       0.01719       0.00000       0.09254       0.00175       0.14785       0.00000       0.00000       0.00000       0.00000       0.00000       0.00000       0.00000       0.00000  
       8         8         1      2009    recall           pt00010       5.47582       0.00012       0.20633       0.04194       0.00986       0.01719       0.00000       0.09254       0.00175       0.14785       0.00000       0.00000       0.00000       0.00000       0.00000       0.00000       0.00000       0.00000  
       9         9         1      2009    recall           pt00010       5.47582       0.00012       0.20633       0.04194       0.00986       0.01719       0.00000       0.09254       0.00175       0.14785       0.00000       0.00000       0.00000       0.00000       0.00000       0.00000       0.00000       0.00000  
      10        10         1      2009    recall           pt00010       5.47582       0.00012       0.20633       0.04194       0.00986       0.01719       0.00000       0.09254       0.00175       0.14785       0.00000       0.00000       0.00000       0.00000       0.00000       0.00000       0.00000       0.00000  
      11        11         1      2009    recall           pt00010       5.47582       0.00012       0.20633       0.04194       0.00986       0.01719       0.00000       0.09254       0.00175       0.14785       0.00000       0.00000       0.00000       0.00000       0.00000       0.00000       0.00000       0.00000  
      12        12         1      2009    recall           pt00010       5.47582       0.00012       0.20633       0.04194       0.00986       0.01719       0.00000       0.09254       0.00175       0.14785       0.00000       0.00000       0.00000       0.00000       0.00000       0.00000       0.00000       0.00000  
       1         1         1      2010    recall           pt00010       5.47582       0.00008       0.00000       0.01227       0.00712       0.01183       0.00000       0.16975       0.00060       0.06023       0.00000       0.00000       0.00000       0.00000       0.00000       0.00000       0.00000       0.00000  
       2         2         1      2010    recall           pt00010       5.47582       0.00008       0.00000       0.01227       0.00712       0.01183       0.00000       0.16975       0.00060       0.06023       0.00000       0.00000       0.00000       0.00000       0.00000       0.00000       0.00000       0.00000  
       3         3         1      2010    recall           pt00010       5.47582       0.00008       0.00000       0.01227       0.00712       0.01183       0.00000       0.16975       0.00060       0.06023       0.00000       0.00000       0.00000       0.00000       0.00000       0.00000       0.00000       0.00000  
       4         4         1      2010    recall           pt00010       5.47582       0.00008       0.00000       0.01227       0.00712       0.01183       0.00000       0.16975       0.00060       0.06023       0.00000       0.00000       0.00000       0.00000       0.00000       0.00000       0.00000       0.00000  
       5         5         1      2010    recall           pt00010       5.47582       0.00008       0.00000       0.01227       0.00712       0.01183       0.00000       0.16975       0.00060       0.06023       0.00000       0.00000       0.00000       0.00000       0.00000       0.00000       0.00000       0.00000  
       6         6         1      2010    recall           pt00010       5.47582       0.00008       0.00000       0.01227       0.00712       0.01183       0.00000       0.16975       0.00060       0.06023       0.00000       0.00000       0.00000       0.00000       0.00000       0.00000       0.00000       0.00000  
       7         7         1      2010    recall           pt00010       5.47582       0.00008       0.00000       0.01227       0.00712       0.01183       0.00000       0.16975       0.00060       0.06023       0.00000       0.00000       0.00000       0.00000       0.00000       0.00000       0.00000       0.00000  
       8         8         1      2010    recall           pt00010       5.47582       0.00008       0.00000       0.01227       0.00712       0.01183       0.00000       0.16975       0.00060       0.06023       0.00000       0.00000       0.00000       0.00000       0.00000       0.00000       0.00000       0.00000  
       9         9         1      2010    recall           pt00010       5.47582       0.00008       0.00000       0.01227       0.00712       0.01183       0.00000       0.16975       0.00060       0.06023       0.00000       0.00000       0.00000       0.00000       0.00000       0.00000       0.00000       0.00000  
      10        10         1      2010    recall           pt00010       5.47582       0.00008       0.00000       0.01227       0.00712       0.01183       0.00000       0.16975       0.00060       0.06023       0.00000       0.00000       0.00000       0.00000       0.00000       0.00000       0.00000       0.00000  
      11        11         1      2010    recall           pt00010       5.47582       0.00008       0.00000       0.01227       0.00712       0.01183       0.00000       0.16975       0.00060       0.06023       0.00000       0.00000       0.00000       0.00000       0.00000       0.00000       0.00000       0.00000  
      12        12         1      2010    recall           pt00010       5.47582       0.00008       0.00000       0.01227       0.00712       0.01183       0.00000       0.16975       0.00060       0.06023       0.00000       0.00000       0.00000       0.00000       0.00000       0.00000       0.00000       0.00000  
       1         1         1      2011    recall           pt00010       5.47582       0.00009       0.00701       0.02650       0.00301       0.01511       0.00000       0.20808       0.00038       0.10404       0.00000       0.00000       0.00000       0.00000       0.00000       0.00000       0.00000       0.00000  
       2         2         1      2011    recall           pt00010       5.47582       0.00009       0.00701       0.02650       0.00301       0.01511       0.00000       0.20808       0.00038       0.10404       0.00000       0.00000       0.00000       0.00000       0.00000       0.00000       0.00000       0.00000  
       3         3         1      2011    recall           pt00010       5.47582       0.00009       0.00701       0.02650       0.00301       0.01511       0.00000       0.20808       0.00038       0.10404       0.00000       0.00000       0.00000       0.00000       0.00000       0.00000       0.00000       0.00000  
       4         4         1      2011    recall           pt00010       5.47582       0.00009       0.00701       0.02650       0.00301       0.01511       0.00000       0.20808       0.00038       0.10404       0.00000       0.00000       0.00000       0.00000       0.00000       0.00000       0.00000       0.00000  
       5         5         1      2011    recall           pt00010       5.47582       0.00009       0.00701       0.02650       0.00301       0.01511       0.00000       0.20808       0.00038       0.10404       0.00000       0.00000       0.00000       0.00000       0.00000       0.00000       0.00000       0.00000  
       6         6         1      2011    recall           pt00010       5.47582       0.00009       0.00701       0.02650       0.00301       0.01511       0.00000       0.20808       0.00038       0.10404       0.00000       0.00000       0.00000       0.00000       0.00000       0.00000       0.00000       0.00000  
       7         7         1      2011    recall           pt00010       5.47582       0.00009       0.00701       0.02650       0.00301       0.01511       0.00000       0.20808       0.00038       0.10404       0.00000       0.00000       0.00000       0.00000       0.00000       0.00000       0.00000       0.00000  
       8         8         1      2011    recall           pt00010       5.47582       0.00009       0.00701       0.02650       0.00301       0.01511       0.00000       0.20808       0.00038       0.10404       0.00000       0.00000       0.00000       0.00000       0.00000       0.00000       0.00000       0.00000  
       9         9         1      2011    recall           pt00010       5.47582       0.00009       0.00701       0.02650       0.00301       0.01511       0.00000       0.20808       0.00038       0.10404       0.00000       0.00000       0.00000       0.00000       0.00000       0.00000       0.00000       0.00000  
      10        10         1      2011    recall           pt00010       5.47582       0.00009       0.00701       0.02650       0.00301       0.01511       0.00000       0.20808       0.00038       0.10404       0.00000       0.00000       0.00000       0.00000       0.00000       0.00000       0.00000       0.00000  
      11        11         1      2011    recall           pt00010       5.47582       0.00009       0.00701       0.02650       0.00301       0.01511       0.00000       0.20808       0.00038       0.10404       0.00000       0.00000       0.00000       0.00000       0.00000       0.00000       0.00000       0.00000  
      12        12         1      2011    recall           pt00010       5.47582       0.00009       0.00701       0.02650       0.00301       0.01511       0.00000       0.20808       0.00038       0.10404       0.00000       0.00000       0.00000       0.00000       0.00000       0.00000       0.00000       0.00000  
       1         1         1      2012    recall           pt00010       8.21373       0.00021       0.19816       0.06891       0.00337       0.01651       0.00000       0.24641       0.00053       0.21356       0.00000       0.00000       0.00000       0.00000       0.00000       0.00000       0.00000       0.00000  
       2         2         1      2012    recall           pt00010       8.21373       0.00021       0.19816       0.06891       0.00337       0.01651       0.00000       0.24641       0.00053       0.21356       0.00000       0.00000       0.00000       0.00000       0.00000       0.00000       0.00000       0.00000  
       3         3         1      2012    recall           pt00010       8.21373       0.00021       0.19816       0.06891       0.00337       0.01651       0.00000       0.24641       0.00053       0.21356       0.00000       0.00000       0.00000       0.00000       0.00000       0.00000       0.00000       0.00000  
       4         4         1      2012    recall           pt00010       8.21373       0.00021       0.19816       0.06891       0.00337       0.01651       0.00000       0.24641       0.00053       0.21356       0.00000       0.00000       0.00000       0.00000       0.00000       0.00000       0.00000       0.00000  
       5         5         1      2012    recall           pt00010       8.21373       0.00021       0.19816       0.06891       0.00337       0.01651       0.00000       0.24641       0.00053       0.21356       0.00000       0.00000       0.00000       0.00000       0.00000       0.00000       0.00000       0.00000  
       6         6         1      2012    recall           pt00010       8.21373       0.00021       0.19816       0.06891       0.00337       0.01651       0.00000       0.24641       0.00053       0.21356       0.00000       0.00000       0.00000       0.00000       0.00000       0.00000       0.00000       0.00000  
       7         7         1      2012    recall           pt00010       8.21373       0.00021       0.19816       0.06891       0.00337       0.01651       0.00000       0.24641       0.00053       0.21356       0.00000       0.00000       0.00000       0.00000       0.00000       0.00000       0.00000       0.00000  
       8         8         1      2012    recall           pt00010       8.21373       0.00021       0.19816       0.06891       0.00337       0.01651       0.00000       0.24641       0.00053       0.21356       0.00000       0.00000       0.00000       0.00000       0.00000       0.00000       0.00000       0.00000  
       9         9         1      2012    recall           pt00010       8.21373       0.00021       0.19816       0.06891       0.00337       0.01651       0.00000       0.24641       0.00053       0.21356       0.00000       0.00000       0.00000       0.00000       0.00000       0.00000       0.00000       0.00000  
      10        10         1      2012    recall           pt00010       8.21373       0.00021       0.19816       0.06891       0.00337       0.01651       0.00000       0.24641       0.00053       0.21356       0.00000       0.00000       0.00000       0.00000       0.00000       0.00000       0.00000       0.00000  
      11        11         1      2012    recall           pt00010       8.21373       0.00021       0.19816       0.06891       0.00337       0.01651       0.00000       0.24641       0.00053       0.21356       0.00000       0.00000       0.00000       0.00000       0.00000       0.00000       0.00000       0.00000  
      12        12         1      2012    recall           pt00010       8.21373       0.00021       0.19816       0.06891       0.00337       0.01651       0.00000       0.24641       0.00053       0.21356       0.00000       0.00000       0.00000       0.00000       0.00000       0.00000       0.00000       0.00000  
       1         1         1      2013    recall           pt00010       8.21373       0.00037       0.00000       0.00123       0.00715       0.02669       0.00000       0.27105       0.00099       0.27927       0.00000       0.00000       0.00000       0.00000       0.00000       0.00000       0.00000       0.00000  
       2         2         1      2013    recall           pt00010       8.21373       0.00037       0.00000       0.00123       0.00715       0.02669       0.00000       0.27105       0.00099       0.27927       0.00000       0.00000       0.00000       0.00000       0.00000       0.00000       0.00000       0.00000  
       3         3         1      2013    recall           pt00010       8.21373       0.00037       0.00000       0.00123       0.00715       0.02669       0.00000       0.27105       0.00099       0.27927       0.00000       0.00000       0.00000       0.00000       0.00000       0.00000       0.00000       0.00000  
       4         4         1      2013    recall           pt00010       8.21373       0.00037       0.00000       0.00123       0.00715       0.02669       0.00000       0.27105       0.00099       0.27927       0.00000       0.00000       0.00000       0.00000       0.00000       0.00000       0.00000       0.00000  
       5         5         1      2013    recall           pt00010       8.21373       0.00037       0.00000       0.00123       0.00715       0.02669       0.00000       0.27105       0.00099       0.27927       0.00000       0.00000       0.00000       0.00000       0.00000       0.00000       0.00000       0.00000  
       6         6         1      2013    recall           pt00010       8.21373       0.00037       0.00000       0.00123       0.00715       0.02669       0.00000       0.27105       0.00099       0.27927       0.00000       0.00000       0.00000       0.00000       0.00000       0.00000       0.00000       0.00000  
       7         7         1      2013    recall           pt00010       8.21373       0.00037       0.00000       0.00123       0.00715       0.02669       0.00000       0.27105       0.00099       0.27927       0.00000       0.00000       0.00000       0.00000       0.00000       0.00000       0.00000       0.00000  
       8         8         1      2013    recall           pt00010       8.21373       0.00037       0.00000       0.00123       0.00715       0.02669       0.00000       0.27105       0.00099       0.27927       0.00000       0.00000       0.00000       0.00000       0.00000       0.00000       0.00000       0.00000  
       9         9         1      2013    recall           pt00010       8.21373       0.00037       0.00000       0.00123       0.00715       0.02669       0.00000       0.27105       0.00099       0.27927       0.00000       0.00000       0.00000       0.00000       0.00000       0.00000       0.00000       0.00000  
      10        10         1      2013    recall           pt00010       8.21373       0.00037       0.00000       0.00123       0.00715       0.02669       0.00000       0.27105       0.00099       0.27927       0.00000       0.00000       0.00000       0.00000       0.00000       0.00000       0.00000       0.00000  
      11        11         1      2013    recall           pt00010       8.21373       0.00037       0.00000       0.00123       0.00715       0.02669       0.00000       0.27105       0.00099       0.27927       0.00000       0.00000       0.00000       0.00000       0.00000       0.00000       0.00000       0.00000  
      12        12         1      2013    recall           pt00010       8.21373       0.00037       0.00000       0.00123       0.00715       0.02669       0.00000       0.27105       0.00099       0.27927       0.00000       0.00000       0.00000       0.00000       0.00000       0.00000       0.00000       0.00000  
       1         1         1      2014    recall           pt00010       6.29719       0.00016       0.00000       0.00000       0.00145       0.02091       0.00000       0.30227       0.00101       0.13270       0.00000       0.00000       0.00000       0.00000       0.00000       0.00000       0.00000       0.00000  
       2         2         1      2014    recall           pt00010       6.29719       0.00016       0.00000       0.00000       0.00145       0.02091       0.00000       0.30227       0.00101       0.13270       0.00000       0.00000       0.00000       0.00000       0.00000       0.00000       0.00000       0.00000  
       3         3         1      2014    recall           pt00010       6.29719       0.00016       0.00000       0.00000       0.00145       0.02091       0.00000       0.30227       0.00101       0.13270       0.00000       0.00000       0.00000       0.00000       0.00000       0.00000       0.00000       0.00000  
       4         4         1      2014    recall           pt00010       6.29719       0.00016       0.00000       0.00000       0.00145       0.02091       0.00000       0.30227       0.00101       0.13270       0.00000       0.00000       0.00000       0.00000       0.00000       0.00000       0.00000       0.00000  
       5         5         1      2014    recall           pt00010       6.29719       0.00016       0.00000       0.00000       0.00145       0.02091       0.00000       0.30227       0.00101       0.13270       0.00000       0.00000       0.00000       0.00000       0.00000       0.00000       0.00000       0.00000  
       6         6         1      2014    recall           pt00010       6.29719       0.00016       0.00000       0.00000       0.00145       0.02091       0.00000       0.30227       0.00101       0.13270       0.00000       0.00000       0.00000       0.00000       0.00000       0.00000       0.00000       0.00000  
       7         7         1      2014    recall           pt00010       6.29719       0.00016       0.00000       0.00000       0.00145       0.02091       0.00000       0.30227       0.00101       0.13270       0.00000       0.00000       0.00000       0.00000       0.00000       0.00000       0.00000       0.00000  
       8         8         1      2014    recall           pt00010       6.29719       0.00016       0.00000       0.00000       0.00145       0.02091       0.00000       0.30227       0.00101       0.13270       0.00000       0.00000       0.00000       0.00000       0.00000       0.00000       0.00000       0.00000  
[...]
      11        11         1      2014    recall           pt00010       6.29719       0.00016       0.00000       0.00000       0.00145       0.02091       0.00000       0.30227       0.00101       0.13270       0.00000       0.00000       0.00000       0.00000       0.00000       0.00000       0.00000       0.00000  
      12        12         1      2014    recall           pt00010       6.29719       0.00016       0.00000       0.00000       0.00145       0.02091       0.00000       0.30227       0.00101       0.13270       0.00000       0.00000       0.00000       0.00000       0.00000       0.00000       0.00000       0.00000  
       1         1         1      2015    recall           pt00010       6.57098       0.00016       0.00000       0.00000       0.00267       0.00905       0.00000       0.33668       0.00618       0.07817       0.00000       0.00000       0.00000       0.00000       0.00000       0.00000       0.00000       0.00000  
       2         2         1      2015    recall           pt00010       6.57098       0.00016       0.00000       0.00000       0.00267       0.00905       0.00000       0.33668       0.00618       0.07817       0.00000       0.00000       0.00000       0.00000       0.00000       0.00000       0.00000       0.00000  
       3         3         1      2015    recall           pt00010       6.57098       0.00016       0.00000       0.00000       0.00267       0.00905       0.00000       0.33668       0.00618       0.07817       0.00000       0.00000       0.00000       0.00000       0.00000       0.00000       0.00000       0.00000  
       4         4         1      2015    recall           pt00010       6.57098       0.00016       0.00000       0.00000       0.00267       0.00905       0.00000       0.33668       0.00618       0.07817       0.00000       0.00000       0.00000       0.00000       0.00000       0.00000       0.00000       0.00000  
       5         5         1      2015    recall           pt00010       6.57098       0.00016       0.00000       0.00000       0.00267       0.00905       0.00000       0.33668       0.00618       0.07817       0.00000       0.00000       0.00000       0.00000       0.00000       0.00000       0.00000       0.00000  
       6         6         1      2015    recall           pt00010       6.57098       0.00016       0.00000       0.00000       0.00267       0.00905       0.00000       0.33668       0.00618       0.07817       0.00000       0.00000       0.00000       0.00000       0.00000       0.00000       0.00000       0.00000  
       7         7         1      2015    recall           pt00010       6.57098       0.00016       0.00000       0.00000       0.00267       0.00905       0.00000       0.33668       0.00618       0.07817       0.00000       0.00000       0.00000       0.00000       0.00000       0.00000       0.00000       0.00000  
       8         8         1      2015    recall           pt00010       6.57098       0.00016       0.00000       0.00000       0.00267       0.00905       0.00000       0.33668       0.00618       0.07817       0.00000       0.00000       0.00000       0.00000       0.00000       0.00000       0.00000       0.00000  
       9         9         1      2015    recall           pt00010       6.57098       0.00016       0.00000       0.00000       0.00267       0.00905       0.00000       0.33668       0.00618       0.07817       0.00000       0.00000       0.00000       0.00000       0.00000       0.00000       0.00000       0.00000  
      10        10         1      2015    recall           pt00010       6.57098       0.00016       0.00000       0.00000       0.00267       0.00905       0.00000       0.33668       0.00618       0.07817       0.00000       0.00000       0.00000       0.00000       0.00000       0.00000       0.00000       0.00000  
      11        11         1      2015    recall           pt00010       6.57098       0.00016       0.00000       0.00000       0.00267       0.00905       0.00000       0.33668       0.00618       0.07817       0.00000       0.00000       0.00000       0.00000       0.00000       0.00000       0.00000       0.00000  
      12        12         1      2015    recall           pt00010       6.57098       0.00016       0.00000       0.00000       0.00267       0.00905       0.00000       0.33668       0.00618       0.07817       0.00000       0.00000       0.00000       0.00000       0.00000       0.00000       0.00000       0.00000  
       1         1         1      2016    recall           pt00010       6.57098       0.00013       0.00000       0.00471       0.00631       0.00858       0.00000       0.13145       0.00125       0.13285       0.00000       0.00000       0.00000       0.00000       0.00000       0.00000       0.00000       0.00000  
       2         2         1      2016    recall           pt00010       6.57098       0.00013       0.00000       0.00471       0.00631       0.00858       0.00000       0.13145       0.00125       0.13285       0.00000       0.00000       0.00000       0.00000       0.00000       0.00000       0.00000       0.00000  
       3         3         1      2016    recall           pt00010       6.57098       0.00013       0.00000       0.00471       0.00631       0.00858       0.00000       0.13145       0.00125       0.13285       0.00000       0.00000       0.00000       0.00000       0.00000       0.00000       0.00000       0.00000  
       4         4         1      2016    recall           pt00010       6.57098       0.00013       0.00000       0.00471       0.00631       0.00858       0.00000       0.13145       0.00125       0.13285       0.00000       0.00000       0.00000       0.00000       0.00000       0.00000       0.00000       0.00000  
       5         5         1      2016    recall           pt00010       6.57098       0.00013       0.00000       0.00471       0.00631       0.00858       0.00000       0.13145       0.00125       0.13285       0.00000       0.00000       0.00000       0.00000       0.00000       0.00000       0.00000       0.00000  
       6         6         1      2016    recall           pt00010       6.57098       0.00013       0.00000       0.00471       0.00631       0.00858       0.00000       0.13145       0.00125       0.13285       0.00000       0.00000       0.00000       0.00000       0.00000       0.00000       0.00000       0.00000  
       7         7         1      2016    recall           pt00010       6.57098       0.00013       0.00000       0.00471       0.00631       0.00858       0.00000       0.13145       0.00125       0.13285       0.00000       0.00000       0.00000       0.00000       0.00000       0.00000       0.00000       0.00000  
       8         8         1      2016    recall           pt00010       6.57098       0.00013       0.00000       0.00471       0.00631       0.00858       0.00000       0.13145       0.00125       0.13285       0.00000       0.00000       0.00000       0.00000       0.00000       0.00000       0.00000       0.00000  
       9         9         1      2016    recall           pt00010       6.57098       0.00013       0.00000       0.00471       0.00631       0.00858       0.00000       0.13145       0.00125       0.13285       0.00000       0.00000       0.00000       0.00000       0.00000       0.00000       0.00000       0.00000  
      10        10         1      2016    recall           pt00010       6.57098       0.00013       0.00000       0.00471       0.00631       0.00858       0.00000       0.13145       0.00125       0.13285       0.00000       0.00000       0.00000       0.00000       0.00000       0.00000       0.00000       0.00000  
      11        11         1      2016    recall           pt00010       6.57098       0.00013       0.00000       0.00471       0.00631       0.00858       0.00000       0.13145       0.00125       0.13285       0.00000       0.00000       0.00000       0.00000       0.00000       0.00000       0.00000       0.00000  
      12        12         1      2016    recall           pt00010       6.57098       0.00013       0.00000       0.00471       0.00631       0.00858       0.00000       0.13145       0.00125       0.13285       0.00000       0.00000       0.00000       0.00000       0.00000       0.00000       0.00000       0.00000  
       1         1         1      2017    recall           pt00010       6.29719       0.00007       0.00000       0.00000       0.00754       0.00628       0.00000       0.21278       0.00115       0.06002       0.00000       0.00000       0.00000       0.00000       0.00000       0.00000       0.00000       0.00000  
       2         2         1      2017    recall           pt00010       6.29719       0.00007       0.00000       0.00000       0.00754       0.00628       0.00000       0.21278       0.00115       0.06002       0.00000       0.00000       0.00000       0.00000       0.00000       0.00000       0.00000       0.00000  
       3         3         1      2017    recall           pt00010       6.29719       0.00007       0.00000       0.00000       0.00754       0.00628       0.00000       0.21278       0.00115       0.06002       0.00000       0.00000       0.00000       0.00000       0.00000       0.00000       0.00000       0.00000  
       4         4         1      2017    recall           pt00010       6.29719       0.00007       0.00000       0.00000       0.00754       0.00628       0.00000       0.21278       0.00115       0.06002       0.00000       0.00000       0.00000       0.00000       0.00000       0.00000       0.00000       0.00000  
       5         5         1      2017    recall           pt00010       6.29719       0.00007       0.00000       0.00000       0.00754       0.00628       0.00000       0.21278       0.00115       0.06002       0.00000       0.00000       0.00000       0.00000       0.00000       0.00000       0.00000       0.00000  
       6         6         1      2017    recall           pt00010       6.29719       0.00007       0.00000       0.00000       0.00754       0.00628       0.00000       0.21278       0.00115       0.06002       0.00000       0.00000       0.00000       0.00000       0.00000       0.00000       0.00000       0.00000  
       7         7         1      2017    recall           pt00010       6.29719       0.00007       0.00000       0.00000       0.00754       0.00628       0.00000       0.21278       0.00115       0.06002       0.00000       0.00000       0.00000       0.00000       0.00000       0.00000       0.00000       0.00000  
       8         8         1      2017    recall           pt00010       6.29719       0.00007       0.00000       0.00000       0.00754       0.00628       0.00000       0.21278       0.00115       0.06002       0.00000       0.00000       0.00000       0.00000       0.00000       0.00000       0.00000       0.00000  
       9         9         1      2017    recall           pt00010       6.29719       0.00007       0.00000       0.00000       0.00754       0.00628       0.00000       0.21278       0.00115       0.06002       0.00000       0.00000       0.00000       0.00000       0.00000       0.00000       0.00000       0.00000  
      10        10         1      2017    recall           pt00010       6.29719       0.00007       0.00000       0.00000       0.00754       0.00628       0.00000       0.21278       0.00115       0.06002       0.00000       0.00000       0.00000       0.00000       0.00000       0.00000       0.00000       0.00000  
      11        11         1      2017    recall           pt00010       6.29719       0.00007       0.00000       0.00000       0.00754       0.00628       0.00000       0.21278       0.00115       0.06002       0.00000       0.00000       0.00000       0.00000       0.00000       0.00000       0.00000       0.00000  
      12        12         1      2017    recall           pt00010       6.29719       0.00007       0.00000       0.00000       0.00754       0.00628       0.00000       0.21278       0.00115       0.06002       0.00000       0.00000       0.00000       0.00000       0.00000       0.00000       0.00000       0.00000  
       1         1         1      2018    recall           pt00010       7.39235       0.00019       0.00000       0.00000       0.00464       0.01585       0.00000       0.37303       0.00082       0.10166       0.00000       0.00000       0.00000       0.00000       0.00000       0.00000       0.00000       0.00000  
       2         2         1      2018    recall           pt00010       7.39235       0.00019       0.00000       0.00000       0.00464       0.01585       0.00000       0.37303       0.00082       0.10166       0.00000       0.00000       0.00000       0.00000       0.00000       0.00000       0.00000       0.00000  
       3         3         1      2018    recall           pt00010       7.39235       0.00019       0.00000       0.00000       0.00464       0.01585       0.00000       0.37303       0.00082       0.10166       0.00000       0.00000       0.00000       0.00000       0.00000       0.00000       0.00000       0.00000  
       4         4         1      2018    recall           pt00010       7.39235       0.00019       0.00000       0.00000       0.00464       0.01585       0.00000       0.37303       0.00082       0.10166       0.00000       0.00000       0.00000       0.00000       0.00000       0.00000       0.00000       0.00000  
       5         5         1      2018    recall           pt00010       7.39235       0.00019       0.00000       0.00000       0.00464       0.01585       0.00000       0.37303       0.00082       0.10166       0.00000       0.00000       0.00000       0.00000       0.00000       0.00000       0.00000       0.00000  
       6         6         1      2018    recall           pt00010       7.39235       0.00019       0.00000       0.00000       0.00464       0.01585       0.00000       0.37303       0.00082       0.10166       0.00000       0.00000       0.00000       0.00000       0.00000       0.00000       0.00000       0.00000  
       7         7         1      2018    recall           pt00010       7.39235       0.00019       0.00000       0.00000       0.00464       0.01585       0.00000       0.37303       0.00082       0.10166       0.00000       0.00000       0.00000       0.00000       0.00000       0.00000       0.00000       0.00000  
       8         8         1      2018    recall           pt00010       7.39235       0.00019       0.00000       0.00000       0.00464       0.01585       0.00000       0.37303       0.00082       0.10166       0.00000       0.00000       0.00000       0.00000       0.00000       0.00000       0.00000       0.00000  
       9         9         1      2018    recall           pt00010       7.39235       0.00019       0.00000       0.00000       0.00464       0.01585       0.00000       0.37303       0.00082       0.10166       0.00000       0.00000       0.00000       0.00000       0.00000       0.00000       0.00000       0.00000  
      10        10         1      2018    recall           pt00010       7.39235       0.00019       0.00000       0.00000       0.00464       0.01585       0.00000       0.37303       0.00082       0.10166       0.00000       0.00000       0.00000       0.00000       0.00000       0.00000       0.00000       0.00000  
      11        11         1      2018    recall           pt00010       7.39235       0.00019       0.00000       0.00000       0.00464       0.01585       0.00000       0.37303       0.00082       0.10166       0.00000       0.00000       0.00000       0.00000       0.00000       0.00000       0.00000       0.00000  
      12        12         1      2018    recall           pt00010       7.39235       0.00019       0.00000       0.00000       0.00464       0.01585       0.00000       0.37303       0.00082       0.10166       0.00000       0.00000       0.00000       0.00000       0.00000       0.00000       0.00000       0.00000  
       1         1         1      2019    recall           pt00010       6.75442       0.00021       0.00000       0.00660       0.00465       0.00383       0.00000       0.37564       0.00219       0.10432       0.00000       0.00000       0.00000       0.00000       0.00000       0.00000       0.00000       0.00000  
       2         2         1      2019    recall           pt00010       6.75442       0.00021       0.00000       0.00660       0.00465       0.00383       0.00000       0.37564       0.00219       0.10432       0.00000       0.00000       0.00000       0.00000       0.00000       0.00000       0.00000       0.00000  
       3         3         1      2019    recall           pt00010       6.75442       0.00021       0.00000       0.00660       0.00465       0.00383       0.00000       0.37564       0.00219       0.10432       0.00000       0.00000       0.00000       0.00000       0.00000       0.00000       0.00000       0.00000  
       4         4         1      2019    recall           pt00010       6.75442       0.00021       0.00000       0.00660       0.00465       0.00383       0.00000       0.37564       0.00219       0.10432       0.00000       0.00000       0.00000       0.00000       0.00000       0.00000       0.00000       0.00000  
       5         5         1      2019    recall           pt00010       6.75442       0.00021       0.00000       0.00660       0.00465       0.00383       0.00000       0.37564       0.00219       0.10432       0.00000       0.00000       0.00000       0.00000       0.00000       0.00000       0.00000       0.00000  
       6         6         1      2019    recall           pt00010       6.75442       0.00021       0.00000       0.00660       0.00465       0.00383       0.00000       0.37564       0.00219       0.10432       0.00000       0.00000       0.00000       0.00000       0.00000       0.00000       0.00000       0.00000  
       7         7         1      2019    recall           pt00010       6.75442       0.00021       0.00000       0.00660       0.00465       0.00383       0.00000       0.37564       0.00219       0.10432       0.00000       0.00000       0.00000       0.00000       0.00000       0.00000       0.00000       0.00000  
       8         8         1      2019    recall           pt00010       6.75442       0.00021       0.00000       0.00660       0.00465       0.00383       0.00000       0.37564       0.00219       0.10432       0.00000       0.00000       0.00000       0.00000       0.00000       0.00000       0.00000       0.00000  
       9         9         1      2019    recall           pt00010       6.75442       0.00021       0.00000       0.00660       0.00465       0.00383       0.00000       0.37564       0.00219       0.10432       0.00000       0.00000       0.00000       0.00000       0.00000       0.00000       0.00000       0.00000  
      10        10         1      2019    recall           pt00010       6.75442       0.00021       0.00000       0.00660       0.00465       0.00383       0.00000       0.37564       0.00219       0.10432       0.00000       0.00000       0.00000       0.00000       0.00000       0.00000       0.00000       0.00000  
      11        11         1      2019    recall           pt00010       6.75442       0.00021       0.00000       0.00660       0.00465       0.00383       0.00000       0.37564       0.00219       0.10432       0.00000       0.00000       0.00000       0.00000       0.00000       0.00000       0.00000       0.00000  
      12        12         1      2019    recall           pt00010       6.75442       0.00021       0.00000       0.00660       0.00465       0.00383       0.00000       0.37564       0.00219       0.10432       0.00000       0.00000       0.00000       0.00000       0.00000       0.00000       0.00000       0.00000  
