recall.rec: written by SWAT+ editor v2.0.0 on 2022-02-14 13:07
      id  name               rec_typ  file              
       1  pt00001                  2  pt00001.rec       
       2  pt00002                  2  pt00002.rec       
       3  pt00003                  2  pt00003.rec       
       4  pt00004                  2  pt00004.rec       
       5  pt00005                  2  pt00005.rec       
       6  pt00006                  2  pt00006.rec       
       7  pt00007                  2  pt00007.rec       
       8  pt00008                  2  pt00008.rec       
       9  pt00009                  2  pt00009.rec       
      10  pt00010                  2  pt00010.rec       
      11  pt00011                  2  pt00011.rec       
      12  pt00012                  2  pt00012.rec       
      13  pt00013                  2  pt00013.rec       
      14  pt00014                  2  pt00014.rec       
      15  pt00015                  2  pt00015.rec       
      16  pt00016                  2  pt00016.rec       
      17  pt00017                  2  pt00017.rec       
      18  pt00018                  2  pt00018.rec       
      19  pt00019                  2  pt00019.rec       
      20  pt00020                  2  pt00020.rec       
      21  pt00021                  2  pt00021.rec       
      22  pt00022                  2  pt00022.rec       
      23  pt00023                  2  pt00023.rec       
      24  extinl16095              1  extinl16095.rec   
      25  extinl13065              1  extinl13065.rec   
      26  extinl1001112            1  extinl1001112.rec  
