                   SWAT+               
             Revision 61.0            
      Soil & Water Assessment Tool    
               PC Version             
    Program reading . . . executing


  Date of Sim  10/30/2024 Time  20:57:32
 reading from precipitation file         Time  20:57:32
 reading from temperature file           Time  20:57:32
 reading from solar radiation file       Time  20:57:33
 reading from relative humidity file     Time  20:57:33
 reading from wind file                  Time  20:57:33
 reading from wgn file                   Time  20:57:33
 reading from wx station file            Time  20:57:33
  Original Simulation        1   1  1994 Yr    1 of   26 Time  20:57:35
  Original Simulation        1   2  1994 Yr    1 of   26 Time  20:57:35
  Original Simulation        1   3  1994 Yr    1 of   26 Time  20:57:35
  Original Simulation        1   4  1994 Yr    1 of   26 Time  20:57:35
  Original Simulation        1   5  1994 Yr    1 of   26 Time  20:57:36
  Original Simulation        1   6  1994 Yr    1 of   26 Time  20:57:36
  Original Simulation        1   7  1994 Yr    1 of   26 Time  20:57:36
  Original Simulation        1   8  1994 Yr    1 of   26 Time  20:57:36
  Original Simulation        1   9  1994 Yr    1 of   26 Time  20:57:36
  Original Simulation        1  10  1994 Yr    1 of   26 Time  20:57:36
  Original Simulation        1  11  1994 Yr    1 of   26 Time  20:57:36
  Original Simulation        1  12  1994 Yr    1 of   26 Time  20:57:36
  Original Simulation        1  13  1994 Yr    1 of   26 Time  20:57:36
  Original Simulation        1  14  1994 Yr    1 of   26 Time  20:57:36
  Original Simulation        1  15  1994 Yr    1 of   26 Time  20:57:37
  Original Simulation        1  16  1994 Yr    1 of   26 Time  20:57:37
  Original Simulation        1  17  1994 Yr    1 of   26 Time  20:57:37
  Original Simulation        1  18  1994 Yr    1 of   26 Time  20:57:37
  Original Simulation        1  19  1994 Yr    1 of   26 Time  20:57:37
  Original Simulation        1  20  1994 Yr    1 of   26 Time  20:57:37
  Original Simulation        1  21  1994 Yr    1 of   26 Time  20:57:37
  Original Simulation        1  22  1994 Yr    1 of   26 Time  20:57:37
  Original Simulation        1  23  1994 Yr    1 of   26 Time  20:57:37
  Original Simulation        1  24  1994 Yr    1 of   26 Time  20:57:37
  Original Simulation        1  25  1994 Yr    1 of   26 Time  20:57:38
  Original Simulation        1  26  1994 Yr    1 of   26 Time  20:57:38
  Original Simulation        1  27  1994 Yr    1 of   26 Time  20:57:38
  Original Simulation        1  28  1994 Yr    1 of   26 Time  20:57:38
  Original Simulation        1  29  1994 Yr    1 of   26 Time  20:57:38
  Original Simulation        1  30  1994 Yr    1 of   26 Time  20:57:38
  Original Simulation        1  31  1994 Yr    1 of   26 Time  20:57:38
  Original Simulation        2   1  1994 Yr    1 of   26 Time  20:57:38
  Original Simulation        2   2  1994 Yr    1 of   26 Time  20:57:38
  Original Simulation        2   3  1994 Yr    1 of   26 Time  20:57:38
  Original Simulation        2   4  1994 Yr    1 of   26 Time  20:57:39
  Original Simulation        2   5  1994 Yr    1 of   26 Time  20:57:39
  Original Simulation        2   6  1994 Yr    1 of   26 Time  20:57:39
  Original Simulation        2   7  1994 Yr    1 of   26 Time  20:57:39
  Original Simulation        2   8  1994 Yr    1 of   26 Time  20:57:39
  Original Simulation        2   9  1994 Yr    1 of   26 Time  20:57:39
  Original Simulation        2  10  1994 Yr    1 of   26 Time  20:57:39
  Original Simulation        2  11  1994 Yr    1 of   26 Time  20:57:39
  Original Simulation        2  12  1994 Yr    1 of   26 Time  20:57:39
  Original Simulation        2  13  1994 Yr    1 of   26 Time  20:57:39
  Original Simulation        2  14  1994 Yr    1 of   26 Time  20:57:40
  Original Simulation        2  15  1994 Yr    1 of   26 Time  20:57:40
  Original Simulation        2  16  1994 Yr    1 of   26 Time  20:57:40
  Original Simulation        2  17  1994 Yr    1 of   26 Time  20:57:40
  Original Simulation        2  18  1994 Yr    1 of   26 Time  20:57:40
  Original Simulation        2  19  1994 Yr    1 of   26 Time  20:57:40
  Original Simulation        2  20  1994 Yr    1 of   26 Time  20:57:40
  Original Simulation        2  21  1994 Yr    1 of   26 Time  20:57:40
  Original Simulation        2  22  1994 Yr    1 of   26 Time  20:57:40
  Original Simulation        2  23  1994 Yr    1 of   26 Time  20:57:40
  Original Simulation        2  24  1994 Yr    1 of   26 Time  20:57:41
  Original Simulation        2  25  1994 Yr    1 of   26 Time  20:57:41
  Original Simulation        2  26  1994 Yr    1 of   26 Time  20:57:41
  Original Simulation        2  27  1994 Yr    1 of   26 Time  20:57:41
  Original Simulation        2  28  1994 Yr    1 of   26 Time  20:57:41
  Original Simulation        3   1  1994 Yr    1 of   26 Time  20:57:41
  Original Simulation        3   2  1994 Yr    1 of   26 Time  20:57:41
  Original Simulation        3   3  1994 Yr    1 of   26 Time  20:57:41
  Original Simulation        3   4  1994 Yr    1 of   26 Time  20:57:41
  Original Simulation        3   5  1994 Yr    1 of   26 Time  20:57:41
  Original Simulation        3   6  1994 Yr    1 of   26 Time  20:57:42
  Original Simulation        3   7  1994 Yr    1 of   26 Time  20:57:42
  Original Simulation        3   8  1994 Yr    1 of   26 Time  20:57:42
  Original Simulation        3   9  1994 Yr    1 of   26 Time  20:57:42
  Original Simulation        3  10  1994 Yr    1 of   26 Time  20:57:42
  Original Simulation        3  11  1994 Yr    1 of   26 Time  20:57:42
  Original Simulation        3  12  1994 Yr    1 of   26 Time  20:57:42
  Original Simulation        3  13  1994 Yr    1 of   26 Time  20:57:42
  Original Simulation        3  14  1994 Yr    1 of   26 Time  20:57:42
  Original Simulation        3  15  1994 Yr    1 of   26 Time  20:57:42
  Original Simulation        3  16  1994 Yr    1 of   26 Time  20:57:43
  Original Simulation        3  17  1994 Yr    1 of   26 Time  20:57:43
  Original Simulation        3  18  1994 Yr    1 of   26 Time  20:57:43
  Original Simulation        3  19  1994 Yr    1 of   26 Time  20:57:43
  Original Simulation        3  20  1994 Yr    1 of   26 Time  20:57:43
  Original Simulation        3  21  1994 Yr    1 of   26 Time  20:57:43
  Original Simulation        3  22  1994 Yr    1 of   26 Time  20:57:43
  Original Simulation        3  23  1994 Yr    1 of   26 Time  20:57:43
  Original Simulation        3  24  1994 Yr    1 of   26 Time  20:57:43
  Original Simulation        3  25  1994 Yr    1 of   26 Time  20:57:44
  Original Simulation        3  26  1994 Yr    1 of   26 Time  20:57:44
  Original Simulation        3  27  1994 Yr    1 of   26 Time  20:57:44
  Original Simulation        3  28  1994 Yr    1 of   26 Time  20:57:44
  Original Simulation        3  29  1994 Yr    1 of   26 Time  20:57:44
  Original Simulation        3  30  1994 Yr    1 of   26 Time  20:57:44
  Original Simulation        3  31  1994 Yr    1 of   26 Time  20:57:44
  Original Simulation        4   1  1994 Yr    1 of   26 Time  20:57:44
  Original Simulation        4   2  1994 Yr    1 of   26 Time  20:57:44
  Original Simulation        4   3  1994 Yr    1 of   26 Time  20:57:44
  Original Simulation        4   4  1994 Yr    1 of   26 Time  20:57:45
  Original Simulation        4   5  1994 Yr    1 of   26 Time  20:57:45
  Original Simulation        4   6  1994 Yr    1 of   26 Time  20:57:45
  Original Simulation        4   7  1994 Yr    1 of   26 Time  20:57:45
  Original Simulation        4   8  1994 Yr    1 of   26 Time  20:57:45
  Original Simulation        4   9  1994 Yr    1 of   26 Time  20:57:45
  Original Simulation        4  10  1994 Yr    1 of   26 Time  20:57:45
  Original Simulation        4  11  1994 Yr    1 of   26 Time  20:57:45
  Original Simulation        4  12  1994 Yr    1 of   26 Time  20:57:45
  Original Simulation        4  13  1994 Yr    1 of   26 Time  20:57:46
  Original Simulation        4  14  1994 Yr    1 of   26 Time  20:57:46
  Original Simulation        4  15  1994 Yr    1 of   26 Time  20:57:46
  Original Simulation        4  16  1994 Yr    1 of   26 Time  20:57:46
  Original Simulation        4  17  1994 Yr    1 of   26 Time  20:57:46
  Original Simulation        4  18  1994 Yr    1 of   26 Time  20:57:46
  Original Simulation        4  19  1994 Yr    1 of   26 Time  20:57:46
  Original Simulation        4  20  1994 Yr    1 of   26 Time  20:57:46
  Original Simulation        4  21  1994 Yr    1 of   26 Time  20:57:46
  Original Simulation        4  22  1994 Yr    1 of   26 Time  20:57:46
  Original Simulation        4  23  1994 Yr    1 of   26 Time  20:57:47
  Original Simulation        4  24  1994 Yr    1 of   26 Time  20:57:47
  Original Simulation        4  25  1994 Yr    1 of   26 Time  20:57:47
  Original Simulation        4  26  1994 Yr    1 of   26 Time  20:57:47
  Original Simulation        4  27  1994 Yr    1 of   26 Time  20:57:47
  Original Simulation        4  28  1994 Yr    1 of   26 Time  20:57:47
  Original Simulation        4  29  1994 Yr    1 of   26 Time  20:57:47
  Original Simulation        4  30  1994 Yr    1 of   26 Time  20:57:47
  Original Simulation        5   1  1994 Yr    1 of   26 Time  20:57:47
  Original Simulation        5   2  1994 Yr    1 of   26 Time  20:57:47
  Original Simulation        5   3  1994 Yr    1 of   26 Time  20:57:48
  Original Simulation        5   4  1994 Yr    1 of   26 Time  20:57:48
  Original Simulation        5   5  1994 Yr    1 of   26 Time  20:57:48
  Original Simulation        5   6  1994 Yr    1 of   26 Time  20:57:48
  Original Simulation        5   7  1994 Yr    1 of   26 Time  20:57:48
  Original Simulation        5   8  1994 Yr    1 of   26 Time  20:57:48
  Original Simulation        5   9  1994 Yr    1 of   26 Time  20:57:48
  Original Simulation        5  10  1994 Yr    1 of   26 Time  20:57:48
  Original Simulation        5  11  1994 Yr    1 of   26 Time  20:57:48
  Original Simulation        5  12  1994 Yr    1 of   26 Time  20:57:48
  Original Simulation        5  13  1994 Yr    1 of   26 Time  20:57:49
  Original Simulation        5  14  1994 Yr    1 of   26 Time  20:57:49
  Original Simulation        5  15  1994 Yr    1 of   26 Time  20:57:49
  Original Simulation        5  16  1994 Yr    1 of   26 Time  20:57:49
  Original Simulation        5  17  1994 Yr    1 of   26 Time  20:57:49
  Original Simulation        5  18  1994 Yr    1 of   26 Time  20:57:49
  Original Simulation        5  19  1994 Yr    1 of   26 Time  20:57:49
  Original Simulation        5  20  1994 Yr    1 of   26 Time  20:57:49
  Original Simulation        5  21  1994 Yr    1 of   26 Time  20:57:49
  Original Simulation        5  22  1994 Yr    1 of   26 Time  20:57:50
  Original Simulation        5  23  1994 Yr    1 of   26 Time  20:57:50
  Original Simulation        5  24  1994 Yr    1 of   26 Time  20:57:50
  Original Simulation        5  25  1994 Yr    1 of   26 Time  20:57:50
  Original Simulation        5  26  1994 Yr    1 of   26 Time  20:57:50
  Original Simulation        5  27  1994 Yr    1 of   26 Time  20:57:50
  Original Simulation        5  28  1994 Yr    1 of   26 Time  20:57:50
  Original Simulation        5  29  1994 Yr    1 of   26 Time  20:57:50
  Original Simulation        5  30  1994 Yr    1 of   26 Time  20:57:50
  Original Simulation        5  31  1994 Yr    1 of   26 Time  20:57:50
  Original Simulation        6   1  1994 Yr    1 of   26 Time  20:57:51
  Original Simulation        6   2  1994 Yr    1 of   26 Time  20:57:51
  Original Simulation        6   3  1994 Yr    1 of   26 Time  20:57:51
  Original Simulation        6   4  1994 Yr    1 of   26 Time  20:57:51
  Original Simulation        6   5  1994 Yr    1 of   26 Time  20:57:51
  Original Simulation        6   6  1994 Yr    1 of   26 Time  20:57:51
  Original Simulation        6   7  1994 Yr    1 of   26 Time  20:57:51
  Original Simulation        6   8  1994 Yr    1 of   26 Time  20:57:51
  Original Simulation        6   9  1994 Yr    1 of   26 Time  20:57:51
  Original Simulation        6  10  1994 Yr    1 of   26 Time  20:57:51
  Original Simulation        6  11  1994 Yr    1 of   26 Time  20:57:52
  Original Simulation        6  12  1994 Yr    1 of   26 Time  20:57:52
  Original Simulation        6  13  1994 Yr    1 of   26 Time  20:57:52
  Original Simulation        6  14  1994 Yr    1 of   26 Time  20:57:52
  Original Simulation        6  15  1994 Yr    1 of   26 Time  20:57:52
  Original Simulation        6  16  1994 Yr    1 of   26 Time  20:57:52
  Original Simulation        6  17  1994 Yr    1 of   26 Time  20:57:52
  Original Simulation        6  18  1994 Yr    1 of   26 Time  20:57:52
  Original Simulation        6  19  1994 Yr    1 of   26 Time  20:57:52
  Original Simulation        6  20  1994 Yr    1 of   26 Time  20:57:53
  Original Simulation        6  21  1994 Yr    1 of   26 Time  20:57:53
  Original Simulation        6  22  1994 Yr    1 of   26 Time  20:57:53
  Original Simulation        6  23  1994 Yr    1 of   26 Time  20:57:53
  Original Simulation        6  24  1994 Yr    1 of   26 Time  20:57:53
  Original Simulation        6  25  1994 Yr    1 of   26 Time  20:57:53
  Original Simulation        6  26  1994 Yr    1 of   26 Time  20:57:53
  Original Simulation        6  27  1994 Yr    1 of   26 Time  20:57:53
  Original Simulation        6  28  1994 Yr    1 of   26 Time  20:57:53
  Original Simulation        6  29  1994 Yr    1 of   26 Time  20:57:53
  Original Simulation        6  30  1994 Yr    1 of   26 Time  20:57:54
  Original Simulation        7   1  1994 Yr    1 of   26 Time  20:57:54
  Original Simulation        7   2  1994 Yr    1 of   26 Time  20:57:54
  Original Simulation        7   3  1994 Yr    1 of   26 Time  20:57:54
  Original Simulation        7   4  1994 Yr    1 of   26 Time  20:57:54
  Original Simulation        7   5  1994 Yr    1 of   26 Time  20:57:54
  Original Simulation        7   6  1994 Yr    1 of   26 Time  20:57:54
  Original Simulation        7   7  1994 Yr    1 of   26 Time  20:57:54
  Original Simulation        7   8  1994 Yr    1 of   26 Time  20:57:54
  Original Simulation        7   9  1994 Yr    1 of   26 Time  20:57:54
  Original Simulation        7  10  1994 Yr    1 of   26 Time  20:57:55
  Original Simulation        7  11  1994 Yr    1 of   26 Time  20:57:55
  Original Simulation        7  12  1994 Yr    1 of   26 Time  20:57:55
  Original Simulation        7  13  1994 Yr    1 of   26 Time  20:57:55
  Original Simulation        7  14  1994 Yr    1 of   26 Time  20:57:55
  Original Simulation        7  15  1994 Yr    1 of   26 Time  20:57:55
  Original Simulation        7  16  1994 Yr    1 of   26 Time  20:57:55
  Original Simulation        7  17  1994 Yr    1 of   26 Time  20:57:55
  Original Simulation        7  18  1994 Yr    1 of   26 Time  20:57:55
  Original Simulation        7  19  1994 Yr    1 of   26 Time  20:57:56
  Original Simulation        7  20  1994 Yr    1 of   26 Time  20:57:56
  Original Simulation        7  21  1994 Yr    1 of   26 Time  20:57:56
  Original Simulation        7  22  1994 Yr    1 of   26 Time  20:57:56
  Original Simulation        7  23  1994 Yr    1 of   26 Time  20:57:56
  Original Simulation        7  24  1994 Yr    1 of   26 Time  20:57:56
  Original Simulation        7  25  1994 Yr    1 of   26 Time  20:57:56
  Original Simulation        7  26  1994 Yr    1 of   26 Time  20:57:56
  Original Simulation        7  27  1994 Yr    1 of   26 Time  20:57:56
  Original Simulation        7  28  1994 Yr    1 of   26 Time  20:57:56
  Original Simulation        7  29  1994 Yr    1 of   26 Time  20:57:57
  Original Simulation        7  30  1994 Yr    1 of   26 Time  20:57:57
  Original Simulation        7  31  1994 Yr    1 of   26 Time  20:57:57
  Original Simulation        8   1  1994 Yr    1 of   26 Time  20:57:57
  Original Simulation        8   2  1994 Yr    1 of   26 Time  20:57:57
  Original Simulation        8   3  1994 Yr    1 of   26 Time  20:57:57
  Original Simulation        8   4  1994 Yr    1 of   26 Time  20:57:57
  Original Simulation        8   5  1994 Yr    1 of   26 Time  20:57:57
  Original Simulation        8   6  1994 Yr    1 of   26 Time  20:57:57
  Original Simulation        8   7  1994 Yr    1 of   26 Time  20:57:58
  Original Simulation        8   8  1994 Yr    1 of   26 Time  20:57:58
  Original Simulation        8   9  1994 Yr    1 of   26 Time  20:57:58
  Original Simulation        8  10  1994 Yr    1 of   26 Time  20:57:58
  Original Simulation        8  11  1994 Yr    1 of   26 Time  20:57:58
  Original Simulation        8  12  1994 Yr    1 of   26 Time  20:57:58
  Original Simulation        8  13  1994 Yr    1 of   26 Time  20:57:58
  Original Simulation        8  14  1994 Yr    1 of   26 Time  20:57:58
  Original Simulation        8  15  1994 Yr    1 of   26 Time  20:57:58
  Original Simulation        8  16  1994 Yr    1 of   26 Time  20:57:58
  Original Simulation        8  17  1994 Yr    1 of   26 Time  20:57:59
  Original Simulation        8  18  1994 Yr    1 of   26 Time  20:57:59
  Original Simulation        8  19  1994 Yr    1 of   26 Time  20:57:59
  Original Simulation        8  20  1994 Yr    1 of   26 Time  20:57:59
  Original Simulation        8  21  1994 Yr    1 of   26 Time  20:57:59
  Original Simulation        8  22  1994 Yr    1 of   26 Time  20:57:59
  Original Simulation        8  23  1994 Yr    1 of   26 Time  20:57:59
  Original Simulation        8  24  1994 Yr    1 of   26 Time  20:57:59
  Original Simulation        8  25  1994 Yr    1 of   26 Time  20:57:59
  Original Simulation        8  26  1994 Yr    1 of   26 Time  20:57:59
  Original Simulation        8  27  1994 Yr    1 of   26 Time  20:58: 0
  Original Simulation        8  28  1994 Yr    1 of   26 Time  20:58: 0
  Original Simulation        8  29  1994 Yr    1 of   26 Time  20:58: 0
  Original Simulation        8  30  1994 Yr    1 of   26 Time  20:58: 0
  Original Simulation        8  31  1994 Yr    1 of   26 Time  20:58: 0
  Original Simulation        9   1  1994 Yr    1 of   26 Time  20:58: 0
  Original Simulation        9   2  1994 Yr    1 of   26 Time  20:58: 0
  Original Simulation        9   3  1994 Yr    1 of   26 Time  20:58: 0
  Original Simulation        9   4  1994 Yr    1 of   26 Time  20:58: 0
  Original Simulation        9   5  1994 Yr    1 of   26 Time  20:58: 0
  Original Simulation        9   6  1994 Yr    1 of   26 Time  20:58: 1
  Original Simulation        9   7  1994 Yr    1 of   26 Time  20:58: 1
  Original Simulation        9   8  1994 Yr    1 of   26 Time  20:58: 1
  Original Simulation        9   9  1994 Yr    1 of   26 Time  20:58: 1
  Original Simulation        9  10  1994 Yr    1 of   26 Time  20:58: 1
  Original Simulation        9  11  1994 Yr    1 of   26 Time  20:58: 1
  Original Simulation        9  12  1994 Yr    1 of   26 Time  20:58: 1
  Original Simulation        9  13  1994 Yr    1 of   26 Time  20:58: 1
  Original Simulation        9  14  1994 Yr    1 of   26 Time  20:58: 1
  Original Simulation        9  15  1994 Yr    1 of   26 Time  20:58: 1
  Original Simulation        9  16  1994 Yr    1 of   26 Time  20:58: 2
  Original Simulation        9  17  1994 Yr    1 of   26 Time  20:58: 2
  Original Simulation        9  18  1994 Yr    1 of   26 Time  20:58: 2
  Original Simulation        9  19  1994 Yr    1 of   26 Time  20:58: 2
  Original Simulation        9  20  1994 Yr    1 of   26 Time  20:58: 2
  Original Simulation        9  21  1994 Yr    1 of   26 Time  20:58: 2
  Original Simulation        9  22  1994 Yr    1 of   26 Time  20:58: 2
  Original Simulation        9  23  1994 Yr    1 of   26 Time  20:58: 2
  Original Simulation        9  24  1994 Yr    1 of   26 Time  20:58: 2
  Original Simulation        9  25  1994 Yr    1 of   26 Time  20:58: 3
  Original Simulation        9  26  1994 Yr    1 of   26 Time  20:58: 3
  Original Simulation        9  27  1994 Yr    1 of   26 Time  20:58: 3
  Original Simulation        9  28  1994 Yr    1 of   26 Time  20:58: 3
  Original Simulation        9  29  1994 Yr    1 of   26 Time  20:58: 3
  Original Simulation        9  30  1994 Yr    1 of   26 Time  20:58: 3
  Original Simulation       10   1  1994 Yr    1 of   26 Time  20:58: 3
  Original Simulation       10   2  1994 Yr    1 of   26 Time  20:58: 3
  Original Simulation       10   3  1994 Yr    1 of   26 Time  20:58: 3
  Original Simulation       10   4  1994 Yr    1 of   26 Time  20:58: 3
  Original Simulation       10   5  1994 Yr    1 of   26 Time  20:58: 4
  Original Simulation       10   6  1994 Yr    1 of   26 Time  20:58: 4
  Original Simulation       10   7  1994 Yr    1 of   26 Time  20:58: 4
  Original Simulation       10   8  1994 Yr    1 of   26 Time  20:58: 4
  Original Simulation       10   9  1994 Yr    1 of   26 Time  20:58: 4
  Original Simulation       10  10  1994 Yr    1 of   26 Time  20:58: 4
  Original Simulation       10  11  1994 Yr    1 of   26 Time  20:58: 4
  Original Simulation       10  12  1994 Yr    1 of   26 Time  20:58: 4
  Original Simulation       10  13  1994 Yr    1 of   26 Time  20:58: 4
  Original Simulation       10  14  1994 Yr    1 of   26 Time  20:58: 4
  Original Simulation       10  15  1994 Yr    1 of   26 Time  20:58: 5
  Original Simulation       10  16  1994 Yr    1 of   26 Time  20:58: 5
  Original Simulation       10  17  1994 Yr    1 of   26 Time  20:58: 5
  Original Simulation       10  18  1994 Yr    1 of   26 Time  20:58: 5
  Original Simulation       10  19  1994 Yr    1 of   26 Time  20:58: 5
  Original Simulation       10  20  1994 Yr    1 of   26 Time  20:58: 5
  Original Simulation       10  21  1994 Yr    1 of   26 Time  20:58: 5
  Original Simulation       10  22  1994 Yr    1 of   26 Time  20:58: 5
  Original Simulation       10  23  1994 Yr    1 of   26 Time  20:58: 5
  Original Simulation       10  24  1994 Yr    1 of   26 Time  20:58: 5
  Original Simulation       10  25  1994 Yr    1 of   26 Time  20:58: 6
  Original Simulation       10  26  1994 Yr    1 of   26 Time  20:58: 6
  Original Simulation       10  27  1994 Yr    1 of   26 Time  20:58: 6
  Original Simulation       10  28  1994 Yr    1 of   26 Time  20:58: 6
  Original Simulation       10  29  1994 Yr    1 of   26 Time  20:58: 6
  Original Simulation       10  30  1994 Yr    1 of   26 Time  20:58: 6
  Original Simulation       10  31  1994 Yr    1 of   26 Time  20:58: 6
  Original Simulation       11   1  1994 Yr    1 of   26 Time  20:58: 6
  Original Simulation       11   2  1994 Yr    1 of   26 Time  20:58: 6
  Original Simulation       11   3  1994 Yr    1 of   26 Time  20:58: 7
  Original Simulation       11   4  1994 Yr    1 of   26 Time  20:58: 7
  Original Simulation       11   5  1994 Yr    1 of   26 Time  20:58: 7
  Original Simulation       11   6  1994 Yr    1 of   26 Time  20:58: 7
  Original Simulation       11   7  1994 Yr    1 of   26 Time  20:58: 7
  Original Simulation       11   8  1994 Yr    1 of   26 Time  20:58: 7
  Original Simulation       11   9  1994 Yr    1 of   26 Time  20:58: 7
  Original Simulation       11  10  1994 Yr    1 of   26 Time  20:58: 7
  Original Simulation       11  11  1994 Yr    1 of   26 Time  20:58: 7
  Original Simulation       11  12  1994 Yr    1 of   26 Time  20:58: 7
  Original Simulation       11  13  1994 Yr    1 of   26 Time  20:58: 8
  Original Simulation       11  14  1994 Yr    1 of   26 Time  20:58: 8
  Original Simulation       11  15  1994 Yr    1 of   26 Time  20:58: 8
  Original Simulation       11  16  1994 Yr    1 of   26 Time  20:58: 8
  Original Simulation       11  17  1994 Yr    1 of   26 Time  20:58: 8
  Original Simulation       11  18  1994 Yr    1 of   26 Time  20:58: 8
  Original Simulation       11  19  1994 Yr    1 of   26 Time  20:58: 8
  Original Simulation       11  20  1994 Yr    1 of   26 Time  20:58: 8
  Original Simulation       11  21  1994 Yr    1 of   26 Time  20:58: 8
  Original Simulation       11  22  1994 Yr    1 of   26 Time  20:58: 8
  Original Simulation       11  23  1994 Yr    1 of   26 Time  20:58: 9
  Original Simulation       11  24  1994 Yr    1 of   26 Time  20:58: 9
  Original Simulation       11  25  1994 Yr    1 of   26 Time  20:58: 9
  Original Simulation       11  26  1994 Yr    1 of   26 Time  20:58: 9
  Original Simulation       11  27  1994 Yr    1 of   26 Time  20:58: 9
  Original Simulation       11  28  1994 Yr    1 of   26 Time  20:58: 9
  Original Simulation       11  29  1994 Yr    1 of   26 Time  20:58: 9
  Original Simulation       11  30  1994 Yr    1 of   26 Time  20:58: 9
  Original Simulation       12   1  1994 Yr    1 of   26 Time  20:58: 9
  Original Simulation       12   2  1994 Yr    1 of   26 Time  20:58: 9
  Original Simulation       12   3  1994 Yr    1 of   26 Time  20:58:10
  Original Simulation       12   4  1994 Yr    1 of   26 Time  20:58:10
  Original Simulation       12   5  1994 Yr    1 of   26 Time  20:58:10
  Original Simulation       12   6  1994 Yr    1 of   26 Time  20:58:10
  Original Simulation       12   7  1994 Yr    1 of   26 Time  20:58:10
  Original Simulation       12   8  1994 Yr    1 of   26 Time  20:58:10
  Original Simulation       12   9  1994 Yr    1 of   26 Time  20:58:10
  Original Simulation       12  10  1994 Yr    1 of   26 Time  20:58:10
  Original Simulation       12  11  1994 Yr    1 of   26 Time  20:58:10
  Original Simulation       12  12  1994 Yr    1 of   26 Time  20:58:10
  Original Simulation       12  13  1994 Yr    1 of   26 Time  20:58:11
  Original Simulation       12  14  1994 Yr    1 of   26 Time  20:58:11
  Original Simulation       12  15  1994 Yr    1 of   26 Time  20:58:11
  Original Simulation       12  16  1994 Yr    1 of   26 Time  20:58:11
  Original Simulation       12  17  1994 Yr    1 of   26 Time  20:58:11
  Original Simulation       12  18  1994 Yr    1 of   26 Time  20:58:11
  Original Simulation       12  19  1994 Yr    1 of   26 Time  20:58:11
  Original Simulation       12  20  1994 Yr    1 of   26 Time  20:58:11
  Original Simulation       12  21  1994 Yr    1 of   26 Time  20:58:11
  Original Simulation       12  22  1994 Yr    1 of   26 Time  20:58:12
  Original Simulation       12  23  1994 Yr    1 of   26 Time  20:58:12
  Original Simulation       12  24  1994 Yr    1 of   26 Time  20:58:12
  Original Simulation       12  25  1994 Yr    1 of   26 Time  20:58:12
  Original Simulation       12  26  1994 Yr    1 of   26 Time  20:58:12
  Original Simulation       12  27  1994 Yr    1 of   26 Time  20:58:12
  Original Simulation       12  28  1994 Yr    1 of   26 Time  20:58:12
  Original Simulation       12  29  1994 Yr    1 of   26 Time  20:58:12
  Original Simulation       12  30  1994 Yr    1 of   26 Time  20:58:12
  Original Simulation       12  31  1994 Yr    1 of   26 Time  20:58:12
  Original Simulation        1   1  1995 Yr    2 of   26 Time  20:58:13
  Original Simulation        1   2  1995 Yr    2 of   26 Time  20:58:13
  Original Simulation        1   3  1995 Yr    2 of   26 Time  20:58:13
  Original Simulation        1   4  1995 Yr    2 of   26 Time  20:58:13
  Original Simulation        1   5  1995 Yr    2 of   26 Time  20:58:13
  Original Simulation        1   6  1995 Yr    2 of   26 Time  20:58:13
  Original Simulation        1   7  1995 Yr    2 of   26 Time  20:58:13
  Original Simulation        1   8  1995 Yr    2 of   26 Time  20:58:13
  Original Simulation        1   9  1995 Yr    2 of   26 Time  20:58:13
  Original Simulation        1  10  1995 Yr    2 of   26 Time  20:58:13
  Original Simulation        1  11  1995 Yr    2 of   26 Time  20:58:14
  Original Simulation        1  12  1995 Yr    2 of   26 Time  20:58:14
  Original Simulation        1  13  1995 Yr    2 of   26 Time  20:58:14
  Original Simulation        1  14  1995 Yr    2 of   26 Time  20:58:14
  Original Simulation        1  15  1995 Yr    2 of   26 Time  20:58:14
  Original Simulation        1  16  1995 Yr    2 of   26 Time  20:58:14
  Original Simulation        1  17  1995 Yr    2 of   26 Time  20:58:14
  Original Simulation        1  18  1995 Yr    2 of   26 Time  20:58:14
  Original Simulation        1  19  1995 Yr    2 of   26 Time  20:58:14
  Original Simulation        1  20  1995 Yr    2 of   26 Time  20:58:14
  Original Simulation        1  21  1995 Yr    2 of   26 Time  20:58:15
  Original Simulation        1  22  1995 Yr    2 of   26 Time  20:58:15
  Original Simulation        1  23  1995 Yr    2 of   26 Time  20:58:15
  Original Simulation        1  24  1995 Yr    2 of   26 Time  20:58:15
  Original Simulation        1  25  1995 Yr    2 of   26 Time  20:58:15
  Original Simulation        1  26  1995 Yr    2 of   26 Time  20:58:15
  Original Simulation        1  27  1995 Yr    2 of   26 Time  20:58:15
  Original Simulation        1  28  1995 Yr    2 of   26 Time  20:58:15
  Original Simulation        1  29  1995 Yr    2 of   26 Time  20:58:15
  Original Simulation        1  30  1995 Yr    2 of   26 Time  20:58:15
  Original Simulation        1  31  1995 Yr    2 of   26 Time  20:58:16
  Original Simulation        2   1  1995 Yr    2 of   26 Time  20:58:16
  Original Simulation        2   2  1995 Yr    2 of   26 Time  20:58:16
  Original Simulation        2   3  1995 Yr    2 of   26 Time  20:58:16
  Original Simulation        2   4  1995 Yr    2 of   26 Time  20:58:16
  Original Simulation        2   5  1995 Yr    2 of   26 Time  20:58:16
  Original Simulation        2   6  1995 Yr    2 of   26 Time  20:58:16
  Original Simulation        2   7  1995 Yr    2 of   26 Time  20:58:16
  Original Simulation        2   8  1995 Yr    2 of   26 Time  20:58:16
  Original Simulation        2   9  1995 Yr    2 of   26 Time  20:58:16
  Original Simulation        2  10  1995 Yr    2 of   26 Time  20:58:17
  Original Simulation        2  11  1995 Yr    2 of   26 Time  20:58:17
  Original Simulation        2  12  1995 Yr    2 of   26 Time  20:58:17
  Original Simulation        2  13  1995 Yr    2 of   26 Time  20:58:17
  Original Simulation        2  14  1995 Yr    2 of   26 Time  20:58:17
  Original Simulation        2  15  1995 Yr    2 of   26 Time  20:58:17
  Original Simulation        2  16  1995 Yr    2 of   26 Time  20:58:17
  Original Simulation        2  17  1995 Yr    2 of   26 Time  20:58:17
  Original Simulation        2  18  1995 Yr    2 of   26 Time  20:58:17
  Original Simulation        2  19  1995 Yr    2 of   26 Time  20:58:17
  Original Simulation        2  20  1995 Yr    2 of   26 Time  20:58:18
  Original Simulation        2  21  1995 Yr    2 of   26 Time  20:58:18
  Original Simulation        2  22  1995 Yr    2 of   26 Time  20:58:18
  Original Simulation        2  23  1995 Yr    2 of   26 Time  20:58:18
  Original Simulation        2  24  1995 Yr    2 of   26 Time  20:58:18
  Original Simulation        2  25  1995 Yr    2 of   26 Time  20:58:18
  Original Simulation        2  26  1995 Yr    2 of   26 Time  20:58:18
  Original Simulation        2  27  1995 Yr    2 of   26 Time  20:58:18
  Original Simulation        2  28  1995 Yr    2 of   26 Time  20:58:18
  Original Simulation        3   1  1995 Yr    2 of   26 Time  20:58:19
  Original Simulation        3   2  1995 Yr    2 of   26 Time  20:58:19
  Original Simulation        3   3  1995 Yr    2 of   26 Time  20:58:19
  Original Simulation        3   4  1995 Yr    2 of   26 Time  20:58:19
  Original Simulation        3   5  1995 Yr    2 of   26 Time  20:58:19
  Original Simulation        3   6  1995 Yr    2 of   26 Time  20:58:19
  Original Simulation        3   7  1995 Yr    2 of   26 Time  20:58:19
  Original Simulation        3   8  1995 Yr    2 of   26 Time  20:58:19
  Original Simulation        3   9  1995 Yr    2 of   26 Time  20:58:19
  Original Simulation        3  10  1995 Yr    2 of   26 Time  20:58:19
  Original Simulation        3  11  1995 Yr    2 of   26 Time  20:58:20
  Original Simulation        3  12  1995 Yr    2 of   26 Time  20:58:20
  Original Simulation        3  13  1995 Yr    2 of   26 Time  20:58:20
  Original Simulation        3  14  1995 Yr    2 of   26 Time  20:58:20
  Original Simulation        3  15  1995 Yr    2 of   26 Time  20:58:20
  Original Simulation        3  16  1995 Yr    2 of   26 Time  20:58:20
  Original Simulation        3  17  1995 Yr    2 of   26 Time  20:58:20
  Original Simulation        3  18  1995 Yr    2 of   26 Time  20:58:20
  Original Simulation        3  19  1995 Yr    2 of   26 Time  20:58:20
  Original Simulation        3  20  1995 Yr    2 of   26 Time  20:58:21
  Original Simulation        3  21  1995 Yr    2 of   26 Time  20:58:21
  Original Simulation        3  22  1995 Yr    2 of   26 Time  20:58:21
  Original Simulation        3  23  1995 Yr    2 of   26 Time  20:58:21
  Original Simulation        3  24  1995 Yr    2 of   26 Time  20:58:21
  Original Simulation        3  25  1995 Yr    2 of   26 Time  20:58:21
  Original Simulation        3  26  1995 Yr    2 of   26 Time  20:58:21
  Original Simulation        3  27  1995 Yr    2 of   26 Time  20:58:21
  Original Simulation        3  28  1995 Yr    2 of   26 Time  20:58:21
  Original Simulation        3  29  1995 Yr    2 of   26 Time  20:58:21
  Original Simulation        3  30  1995 Yr    2 of   26 Time  20:58:22
  Original Simulation        3  31  1995 Yr    2 of   26 Time  20:58:22
  Original Simulation        4   1  1995 Yr    2 of   26 Time  20:58:22
  Original Simulation        4   2  1995 Yr    2 of   26 Time  20:58:22
  Original Simulation        4   3  1995 Yr    2 of   26 Time  20:58:22
  Original Simulation        4   4  1995 Yr    2 of   26 Time  20:58:22
  Original Simulation        4   5  1995 Yr    2 of   26 Time  20:58:22
  Original Simulation        4   6  1995 Yr    2 of   26 Time  20:58:22
  Original Simulation        4   7  1995 Yr    2 of   26 Time  20:58:22
  Original Simulation        4   8  1995 Yr    2 of   26 Time  20:58:22
  Original Simulation        4   9  1995 Yr    2 of   26 Time  20:58:23
  Original Simulation        4  10  1995 Yr    2 of   26 Time  20:58:23
  Original Simulation        4  11  1995 Yr    2 of   26 Time  20:58:23
  Original Simulation        4  12  1995 Yr    2 of   26 Time  20:58:23
  Original Simulation        4  13  1995 Yr    2 of   26 Time  20:58:23
  Original Simulation        4  14  1995 Yr    2 of   26 Time  20:58:23
  Original Simulation        4  15  1995 Yr    2 of   26 Time  20:58:23
  Original Simulation        4  16  1995 Yr    2 of   26 Time  20:58:23
  Original Simulation        4  17  1995 Yr    2 of   26 Time  20:58:23
  Original Simulation        4  18  1995 Yr    2 of   26 Time  20:58:24
  Original Simulation        4  19  1995 Yr    2 of   26 Time  20:58:24
  Original Simulation        4  20  1995 Yr    2 of   26 Time  20:58:24
  Original Simulation        4  21  1995 Yr    2 of   26 Time  20:58:24
  Original Simulation        4  22  1995 Yr    2 of   26 Time  20:58:24
  Original Simulation        4  23  1995 Yr    2 of   26 Time  20:58:24
  Original Simulation        4  24  1995 Yr    2 of   26 Time  20:58:24
  Original Simulation        4  25  1995 Yr    2 of   26 Time  20:58:24
  Original Simulation        4  26  1995 Yr    2 of   26 Time  20:58:24
  Original Simulation        4  27  1995 Yr    2 of   26 Time  20:58:24
  Original Simulation        4  28  1995 Yr    2 of   26 Time  20:58:25
  Original Simulation        4  29  1995 Yr    2 of   26 Time  20:58:25
  Original Simulation        4  30  1995 Yr    2 of   26 Time  20:58:25
  Original Simulation        5   1  1995 Yr    2 of   26 Time  20:58:25
  Original Simulation        5   2  1995 Yr    2 of   26 Time  20:58:25
  Original Simulation        5   3  1995 Yr    2 of   26 Time  20:58:25
  Original Simulation        5   4  1995 Yr    2 of   26 Time  20:58:25
  Original Simulation        5   5  1995 Yr    2 of   26 Time  20:58:25
  Original Simulation        5   6  1995 Yr    2 of   26 Time  20:58:25
  Original Simulation        5   7  1995 Yr    2 of   26 Time  20:58:26
  Original Simulation        5   8  1995 Yr    2 of   26 Time  20:58:26
  Original Simulation        5   9  1995 Yr    2 of   26 Time  20:58:26
  Original Simulation        5  10  1995 Yr    2 of   26 Time  20:58:26
  Original Simulation        5  11  1995 Yr    2 of   26 Time  20:58:26
  Original Simulation        5  12  1995 Yr    2 of   26 Time  20:58:26
  Original Simulation        5  13  1995 Yr    2 of   26 Time  20:58:26
  Original Simulation        5  14  1995 Yr    2 of   26 Time  20:58:26
  Original Simulation        5  15  1995 Yr    2 of   26 Time  20:58:26
  Original Simulation        5  16  1995 Yr    2 of   26 Time  20:58:27
  Original Simulation        5  17  1995 Yr    2 of   26 Time  20:58:27
  Original Simulation        5  18  1995 Yr    2 of   26 Time  20:58:27
  Original Simulation        5  19  1995 Yr    2 of   26 Time  20:58:27
  Original Simulation        5  20  1995 Yr    2 of   26 Time  20:58:27
  Original Simulation        5  21  1995 Yr    2 of   26 Time  20:58:27
  Original Simulation        5  22  1995 Yr    2 of   26 Time  20:58:27
  Original Simulation        5  23  1995 Yr    2 of   26 Time  20:58:27
  Original Simulation        5  24  1995 Yr    2 of   26 Time  20:58:27
  Original Simulation        5  25  1995 Yr    2 of   26 Time  20:58:27
  Original Simulation        5  26  1995 Yr    2 of   26 Time  20:58:28
  Original Simulation        5  27  1995 Yr    2 of   26 Time  20:58:28
  Original Simulation        5  28  1995 Yr    2 of   26 Time  20:58:28
  Original Simulation        5  29  1995 Yr    2 of   26 Time  20:58:28
  Original Simulation        5  30  1995 Yr    2 of   26 Time  20:58:28
  Original Simulation        5  31  1995 Yr    2 of   26 Time  20:58:28
  Original Simulation        6   1  1995 Yr    2 of   26 Time  20:58:28
  Original Simulation        6   2  1995 Yr    2 of   26 Time  20:58:28
  Original Simulation        6   3  1995 Yr    2 of   26 Time  20:58:28
  Original Simulation        6   4  1995 Yr    2 of   26 Time  20:58:29
  Original Simulation        6   5  1995 Yr    2 of   26 Time  20:58:29
  Original Simulation        6   6  1995 Yr    2 of   26 Time  20:58:29
  Original Simulation        6   7  1995 Yr    2 of   26 Time  20:58:29
  Original Simulation        6   8  1995 Yr    2 of   26 Time  20:58:29
  Original Simulation        6   9  1995 Yr    2 of   26 Time  20:58:29
  Original Simulation        6  10  1995 Yr    2 of   26 Time  20:58:29
  Original Simulation        6  11  1995 Yr    2 of   26 Time  20:58:29
  Original Simulation        6  12  1995 Yr    2 of   26 Time  20:58:29
  Original Simulation        6  13  1995 Yr    2 of   26 Time  20:58:29
  Original Simulation        6  14  1995 Yr    2 of   26 Time  20:58:30
  Original Simulation        6  15  1995 Yr    2 of   26 Time  20:58:30
  Original Simulation        6  16  1995 Yr    2 of   26 Time  20:58:30
  Original Simulation        6  17  1995 Yr    2 of   26 Time  20:58:30
  Original Simulation        6  18  1995 Yr    2 of   26 Time  20:58:30
  Original Simulation        6  19  1995 Yr    2 of   26 Time  20:58:30
  Original Simulation        6  20  1995 Yr    2 of   26 Time  20:58:30
  Original Simulation        6  21  1995 Yr    2 of   26 Time  20:58:30
  Original Simulation        6  22  1995 Yr    2 of   26 Time  20:58:30
  Original Simulation        6  23  1995 Yr    2 of   26 Time  20:58:31
  Original Simulation        6  24  1995 Yr    2 of   26 Time  20:58:31
  Original Simulation        6  25  1995 Yr    2 of   26 Time  20:58:31
  Original Simulation        6  26  1995 Yr    2 of   26 Time  20:58:31
  Original Simulation        6  27  1995 Yr    2 of   26 Time  20:58:31
  Original Simulation        6  28  1995 Yr    2 of   26 Time  20:58:31
  Original Simulation        6  29  1995 Yr    2 of   26 Time  20:58:31
  Original Simulation        6  30  1995 Yr    2 of   26 Time  20:58:31
  Original Simulation        7   1  1995 Yr    2 of   26 Time  20:58:31
  Original Simulation        7   2  1995 Yr    2 of   26 Time  20:58:31
  Original Simulation        7   3  1995 Yr    2 of   26 Time  20:58:32
  Original Simulation        7   4  1995 Yr    2 of   26 Time  20:58:32
  Original Simulation        7   5  1995 Yr    2 of   26 Time  20:58:32
  Original Simulation        7   6  1995 Yr    2 of   26 Time  20:58:32
  Original Simulation        7   7  1995 Yr    2 of   26 Time  20:58:32
  Original Simulation        7   8  1995 Yr    2 of   26 Time  20:58:32
  Original Simulation        7   9  1995 Yr    2 of   26 Time  20:58:32
  Original Simulation        7  10  1995 Yr    2 of   26 Time  20:58:32
  Original Simulation        7  11  1995 Yr    2 of   26 Time  20:58:32
  Original Simulation        7  12  1995 Yr    2 of   26 Time  20:58:33
  Original Simulation        7  13  1995 Yr    2 of   26 Time  20:58:33
  Original Simulation        7  14  1995 Yr    2 of   26 Time  20:58:33
  Original Simulation        7  15  1995 Yr    2 of   26 Time  20:58:33
  Original Simulation        7  16  1995 Yr    2 of   26 Time  20:58:33
  Original Simulation        7  17  1995 Yr    2 of   26 Time  20:58:33
  Original Simulation        7  18  1995 Yr    2 of   26 Time  20:58:33
  Original Simulation        7  19  1995 Yr    2 of   26 Time  20:58:33
  Original Simulation        7  20  1995 Yr    2 of   26 Time  20:58:33
  Original Simulation        7  21  1995 Yr    2 of   26 Time  20:58:34
  Original Simulation        7  22  1995 Yr    2 of   26 Time  20:58:34
  Original Simulation        7  23  1995 Yr    2 of   26 Time  20:58:34
  Original Simulation        7  24  1995 Yr    2 of   26 Time  20:58:34
  Original Simulation        7  25  1995 Yr    2 of   26 Time  20:58:34
  Original Simulation        7  26  1995 Yr    2 of   26 Time  20:58:34
  Original Simulation        7  27  1995 Yr    2 of   26 Time  20:58:34
  Original Simulation        7  28  1995 Yr    2 of   26 Time  20:58:34
  Original Simulation        7  29  1995 Yr    2 of   26 Time  20:58:34
  Original Simulation        7  30  1995 Yr    2 of   26 Time  20:58:35
  Original Simulation        7  31  1995 Yr    2 of   26 Time  20:58:35
  Original Simulation        8   1  1995 Yr    2 of   26 Time  20:58:35
  Original Simulation        8   2  1995 Yr    2 of   26 Time  20:58:35
  Original Simulation        8   3  1995 Yr    2 of   26 Time  20:58:35
  Original Simulation        8   4  1995 Yr    2 of   26 Time  20:58:35
  Original Simulation        8   5  1995 Yr    2 of   26 Time  20:58:35
  Original Simulation        8   6  1995 Yr    2 of   26 Time  20:58:35
  Original Simulation        8   7  1995 Yr    2 of   26 Time  20:58:35
  Original Simulation        8   8  1995 Yr    2 of   26 Time  20:58:35
  Original Simulation        8   9  1995 Yr    2 of   26 Time  20:58:36
  Original Simulation        8  10  1995 Yr    2 of   26 Time  20:58:36
  Original Simulation        8  11  1995 Yr    2 of   26 Time  20:58:36
  Original Simulation        8  12  1995 Yr    2 of   26 Time  20:58:36
  Original Simulation        8  13  1995 Yr    2 of   26 Time  20:58:36
  Original Simulation        8  14  1995 Yr    2 of   26 Time  20:58:36
  Original Simulation        8  15  1995 Yr    2 of   26 Time  20:58:36
  Original Simulation        8  16  1995 Yr    2 of   26 Time  20:58:36
  Original Simulation        8  17  1995 Yr    2 of   26 Time  20:58:36
  Original Simulation        8  18  1995 Yr    2 of   26 Time  20:58:37
  Original Simulation        8  19  1995 Yr    2 of   26 Time  20:58:37
  Original Simulation        8  20  1995 Yr    2 of   26 Time  20:58:37
  Original Simulation        8  21  1995 Yr    2 of   26 Time  20:58:37
  Original Simulation        8  22  1995 Yr    2 of   26 Time  20:58:37
  Original Simulation        8  23  1995 Yr    2 of   26 Time  20:58:37
  Original Simulation        8  24  1995 Yr    2 of   26 Time  20:58:37
  Original Simulation        8  25  1995 Yr    2 of   26 Time  20:58:37
  Original Simulation        8  26  1995 Yr    2 of   26 Time  20:58:37
  Original Simulation        8  27  1995 Yr    2 of   26 Time  20:58:37
  Original Simulation        8  28  1995 Yr    2 of   26 Time  20:58:38
  Original Simulation        8  29  1995 Yr    2 of   26 Time  20:58:38
  Original Simulation        8  30  1995 Yr    2 of   26 Time  20:58:38
  Original Simulation        8  31  1995 Yr    2 of   26 Time  20:58:38
  Original Simulation        9   1  1995 Yr    2 of   26 Time  20:58:38
  Original Simulation        9   2  1995 Yr    2 of   26 Time  20:58:38
  Original Simulation        9   3  1995 Yr    2 of   26 Time  20:58:38
  Original Simulation        9   4  1995 Yr    2 of   26 Time  20:58:38
  Original Simulation        9   5  1995 Yr    2 of   26 Time  20:58:38
  Original Simulation        9   6  1995 Yr    2 of   26 Time  20:58:38
  Original Simulation        9   7  1995 Yr    2 of   26 Time  20:58:39
  Original Simulation        9   8  1995 Yr    2 of   26 Time  20:58:39
  Original Simulation        9   9  1995 Yr    2 of   26 Time  20:58:39
  Original Simulation        9  10  1995 Yr    2 of   26 Time  20:58:39
  Original Simulation        9  11  1995 Yr    2 of   26 Time  20:58:39
  Original Simulation        9  12  1995 Yr    2 of   26 Time  20:58:39
  Original Simulation        9  13  1995 Yr    2 of   26 Time  20:58:39
  Original Simulation        9  14  1995 Yr    2 of   26 Time  20:58:39
  Original Simulation        9  15  1995 Yr    2 of   26 Time  20:58:39
  Original Simulation        9  16  1995 Yr    2 of   26 Time  20:58:40
  Original Simulation        9  17  1995 Yr    2 of   26 Time  20:58:40
  Original Simulation        9  18  1995 Yr    2 of   26 Time  20:58:40
  Original Simulation        9  19  1995 Yr    2 of   26 Time  20:58:40
  Original Simulation        9  20  1995 Yr    2 of   26 Time  20:58:40
  Original Simulation        9  21  1995 Yr    2 of   26 Time  20:58:40
  Original Simulation        9  22  1995 Yr    2 of   26 Time  20:58:40
  Original Simulation        9  23  1995 Yr    2 of   26 Time  20:58:40
  Original Simulation        9  24  1995 Yr    2 of   26 Time  20:58:40
  Original Simulation        9  25  1995 Yr    2 of   26 Time  20:58:40
  Original Simulation        9  26  1995 Yr    2 of   26 Time  20:58:41
  Original Simulation        9  27  1995 Yr    2 of   26 Time  20:58:41
  Original Simulation        9  28  1995 Yr    2 of   26 Time  20:58:41
  Original Simulation        9  29  1995 Yr    2 of   26 Time  20:58:41
  Original Simulation        9  30  1995 Yr    2 of   26 Time  20:58:41
  Original Simulation       10   1  1995 Yr    2 of   26 Time  20:58:41
  Original Simulation       10   2  1995 Yr    2 of   26 Time  20:58:41
  Original Simulation       10   3  1995 Yr    2 of   26 Time  20:58:41
  Original Simulation       10   4  1995 Yr    2 of   26 Time  20:58:41
  Original Simulation       10   5  1995 Yr    2 of   26 Time  20:58:42
  Original Simulation       10   6  1995 Yr    2 of   26 Time  20:58:42
  Original Simulation       10   7  1995 Yr    2 of   26 Time  20:58:42
  Original Simulation       10   8  1995 Yr    2 of   26 Time  20:58:42
  Original Simulation       10   9  1995 Yr    2 of   26 Time  20:58:42
  Original Simulation       10  10  1995 Yr    2 of   26 Time  20:58:42
  Original Simulation       10  11  1995 Yr    2 of   26 Time  20:58:42
  Original Simulation       10  12  1995 Yr    2 of   26 Time  20:58:42
  Original Simulation       10  13  1995 Yr    2 of   26 Time  20:58:42
  Original Simulation       10  14  1995 Yr    2 of   26 Time  20:58:42
  Original Simulation       10  15  1995 Yr    2 of   26 Time  20:58:43
  Original Simulation       10  16  1995 Yr    2 of   26 Time  20:58:43
  Original Simulation       10  17  1995 Yr    2 of   26 Time  20:58:43
  Original Simulation       10  18  1995 Yr    2 of   26 Time  20:58:43
  Original Simulation       10  19  1995 Yr    2 of   26 Time  20:58:43
  Original Simulation       10  20  1995 Yr    2 of   26 Time  20:58:43
  Original Simulation       10  21  1995 Yr    2 of   26 Time  20:58:43
  Original Simulation       10  22  1995 Yr    2 of   26 Time  20:58:43
  Original Simulation       10  23  1995 Yr    2 of   26 Time  20:58:43
  Original Simulation       10  24  1995 Yr    2 of   26 Time  20:58:44
  Original Simulation       10  25  1995 Yr    2 of   26 Time  20:58:44
  Original Simulation       10  26  1995 Yr    2 of   26 Time  20:58:44
  Original Simulation       10  27  1995 Yr    2 of   26 Time  20:58:44
  Original Simulation       10  28  1995 Yr    2 of   26 Time  20:58:44
  Original Simulation       10  29  1995 Yr    2 of   26 Time  20:58:44
  Original Simulation       10  30  1995 Yr    2 of   26 Time  20:58:44
  Original Simulation       10  31  1995 Yr    2 of   26 Time  20:58:44
  Original Simulation       11   1  1995 Yr    2 of   26 Time  20:58:44
  Original Simulation       11   2  1995 Yr    2 of   26 Time  20:58:44
  Original Simulation       11   3  1995 Yr    2 of   26 Time  20:58:45
  Original Simulation       11   4  1995 Yr    2 of   26 Time  20:58:45
  Original Simulation       11   5  1995 Yr    2 of   26 Time  20:58:45
  Original Simulation       11   6  1995 Yr    2 of   26 Time  20:58:45
  Original Simulation       11   7  1995 Yr    2 of   26 Time  20:58:45
  Original Simulation       11   8  1995 Yr    2 of   26 Time  20:58:45
  Original Simulation       11   9  1995 Yr    2 of   26 Time  20:58:45
  Original Simulation       11  10  1995 Yr    2 of   26 Time  20:58:45
  Original Simulation       11  11  1995 Yr    2 of   26 Time  20:58:45
  Original Simulation       11  12  1995 Yr    2 of   26 Time  20:58:45
  Original Simulation       11  13  1995 Yr    2 of   26 Time  20:58:46
  Original Simulation       11  14  1995 Yr    2 of   26 Time  20:58:46
  Original Simulation       11  15  1995 Yr    2 of   26 Time  20:58:46
  Original Simulation       11  16  1995 Yr    2 of   26 Time  20:58:46
  Original Simulation       11  17  1995 Yr    2 of   26 Time  20:58:46
  Original Simulation       11  18  1995 Yr    2 of   26 Time  20:58:46
  Original Simulation       11  19  1995 Yr    2 of   26 Time  20:58:46
  Original Simulation       11  20  1995 Yr    2 of   26 Time  20:58:46
  Original Simulation       11  21  1995 Yr    2 of   26 Time  20:58:46
  Original Simulation       11  22  1995 Yr    2 of   26 Time  20:58:47
  Original Simulation       11  23  1995 Yr    2 of   26 Time  20:58:47
  Original Simulation       11  24  1995 Yr    2 of   26 Time  20:58:47
  Original Simulation       11  25  1995 Yr    2 of   26 Time  20:58:47
  Original Simulation       11  26  1995 Yr    2 of   26 Time  20:58:47
  Original Simulation       11  27  1995 Yr    2 of   26 Time  20:58:47
  Original Simulation       11  28  1995 Yr    2 of   26 Time  20:58:47
  Original Simulation       11  29  1995 Yr    2 of   26 Time  20:58:47
  Original Simulation       11  30  1995 Yr    2 of   26 Time  20:58:47
  Original Simulation       12   1  1995 Yr    2 of   26 Time  20:58:47
  Original Simulation       12   2  1995 Yr    2 of   26 Time  20:58:48
  Original Simulation       12   3  1995 Yr    2 of   26 Time  20:58:48
  Original Simulation       12   4  1995 Yr    2 of   26 Time  20:58:48
  Original Simulation       12   5  1995 Yr    2 of   26 Time  20:58:48
  Original Simulation       12   6  1995 Yr    2 of   26 Time  20:58:48
  Original Simulation       12   7  1995 Yr    2 of   26 Time  20:58:48
  Original Simulation       12   8  1995 Yr    2 of   26 Time  20:58:48
  Original Simulation       12   9  1995 Yr    2 of   26 Time  20:58:48
  Original Simulation       12  10  1995 Yr    2 of   26 Time  20:58:48
  Original Simulation       12  11  1995 Yr    2 of   26 Time  20:58:48
  Original Simulation       12  12  1995 Yr    2 of   26 Time  20:58:49
  Original Simulation       12  13  1995 Yr    2 of   26 Time  20:58:49
  Original Simulation       12  14  1995 Yr    2 of   26 Time  20:58:49
  Original Simulation       12  15  1995 Yr    2 of   26 Time  20:58:49
  Original Simulation       12  16  1995 Yr    2 of   26 Time  20:58:49
  Original Simulation       12  17  1995 Yr    2 of   26 Time  20:58:49
  Original Simulation       12  18  1995 Yr    2 of   26 Time  20:58:49
  Original Simulation       12  19  1995 Yr    2 of   26 Time  20:58:49
  Original Simulation       12  20  1995 Yr    2 of   26 Time  20:58:49
  Original Simulation       12  21  1995 Yr    2 of   26 Time  20:58:49
  Original Simulation       12  22  1995 Yr    2 of   26 Time  20:58:49
  Original Simulation       12  23  1995 Yr    2 of   26 Time  20:58:50
  Original Simulation       12  24  1995 Yr    2 of   26 Time  20:58:50
  Original Simulation       12  25  1995 Yr    2 of   26 Time  20:58:50
  Original Simulation       12  26  1995 Yr    2 of   26 Time  20:58:50
  Original Simulation       12  27  1995 Yr    2 of   26 Time  20:58:50
  Original Simulation       12  28  1995 Yr    2 of   26 Time  20:58:50
  Original Simulation       12  29  1995 Yr    2 of   26 Time  20:58:50
  Original Simulation       12  30  1995 Yr    2 of   26 Time  20:58:50
  Original Simulation       12  31  1995 Yr    2 of   26 Time  20:58:50
  Original Simulation        1   1  1996 Yr    3 of   26 Time  20:58:50
  Original Simulation        1   2  1996 Yr    3 of   26 Time  20:58:51
  Original Simulation        1   3  1996 Yr    3 of   26 Time  20:58:51
  Original Simulation        1   4  1996 Yr    3 of   26 Time  20:58:51
  Original Simulation        1   5  1996 Yr    3 of   26 Time  20:58:51
  Original Simulation        1   6  1996 Yr    3 of   26 Time  20:58:51
  Original Simulation        1   7  1996 Yr    3 of   26 Time  20:58:51
  Original Simulation        1   8  1996 Yr    3 of   26 Time  20:58:51
  Original Simulation        1   9  1996 Yr    3 of   26 Time  20:58:51
  Original Simulation        1  10  1996 Yr    3 of   26 Time  20:58:51
  Original Simulation        1  11  1996 Yr    3 of   26 Time  20:58:51
  Original Simulation        1  12  1996 Yr    3 of   26 Time  20:58:52
  Original Simulation        1  13  1996 Yr    3 of   26 Time  20:58:52
  Original Simulation        1  14  1996 Yr    3 of   26 Time  20:58:52
  Original Simulation        1  15  1996 Yr    3 of   26 Time  20:58:52
  Original Simulation        1  16  1996 Yr    3 of   26 Time  20:58:52
  Original Simulation        1  17  1996 Yr    3 of   26 Time  20:58:52
  Original Simulation        1  18  1996 Yr    3 of   26 Time  20:58:52
  Original Simulation        1  19  1996 Yr    3 of   26 Time  20:58:52
  Original Simulation        1  20  1996 Yr    3 of   26 Time  20:58:52
  Original Simulation        1  21  1996 Yr    3 of   26 Time  20:58:52
  Original Simulation        1  22  1996 Yr    3 of   26 Time  20:58:53
  Original Simulation        1  23  1996 Yr    3 of   26 Time  20:58:53
  Original Simulation        1  24  1996 Yr    3 of   26 Time  20:58:53
  Original Simulation        1  25  1996 Yr    3 of   26 Time  20:58:53
  Original Simulation        1  26  1996 Yr    3 of   26 Time  20:58:53
  Original Simulation        1  27  1996 Yr    3 of   26 Time  20:58:53
  Original Simulation        1  28  1996 Yr    3 of   26 Time  20:58:53
  Original Simulation        1  29  1996 Yr    3 of   26 Time  20:58:53
  Original Simulation        1  30  1996 Yr    3 of   26 Time  20:58:53
  Original Simulation        1  31  1996 Yr    3 of   26 Time  20:58:54
  Original Simulation        2   1  1996 Yr    3 of   26 Time  20:58:54
  Original Simulation        2   2  1996 Yr    3 of   26 Time  20:58:54
  Original Simulation        2   3  1996 Yr    3 of   26 Time  20:58:54
  Original Simulation        2   4  1996 Yr    3 of   26 Time  20:58:54
  Original Simulation        2   5  1996 Yr    3 of   26 Time  20:58:54
  Original Simulation        2   6  1996 Yr    3 of   26 Time  20:58:54
  Original Simulation        2   7  1996 Yr    3 of   26 Time  20:58:54
  Original Simulation        2   8  1996 Yr    3 of   26 Time  20:58:54
  Original Simulation        2   9  1996 Yr    3 of   26 Time  20:58:54
  Original Simulation        2  10  1996 Yr    3 of   26 Time  20:58:55
  Original Simulation        2  11  1996 Yr    3 of   26 Time  20:58:55
  Original Simulation        2  12  1996 Yr    3 of   26 Time  20:58:55
  Original Simulation        2  13  1996 Yr    3 of   26 Time  20:58:55
  Original Simulation        2  14  1996 Yr    3 of   26 Time  20:58:55
  Original Simulation        2  15  1996 Yr    3 of   26 Time  20:58:55
  Original Simulation        2  16  1996 Yr    3 of   26 Time  20:58:55
  Original Simulation        2  17  1996 Yr    3 of   26 Time  20:58:55
  Original Simulation        2  18  1996 Yr    3 of   26 Time  20:58:55
  Original Simulation        2  19  1996 Yr    3 of   26 Time  20:58:55
  Original Simulation        2  20  1996 Yr    3 of   26 Time  20:58:56
  Original Simulation        2  21  1996 Yr    3 of   26 Time  20:58:56
  Original Simulation        2  22  1996 Yr    3 of   26 Time  20:58:56
  Original Simulation        2  23  1996 Yr    3 of   26 Time  20:58:56
  Original Simulation        2  24  1996 Yr    3 of   26 Time  20:58:56
  Original Simulation        2  25  1996 Yr    3 of   26 Time  20:58:56
  Original Simulation        2  26  1996 Yr    3 of   26 Time  20:58:56
  Original Simulation        2  27  1996 Yr    3 of   26 Time  20:58:56
  Original Simulation        2  28  1996 Yr    3 of   26 Time  20:58:56
  Original Simulation        2  29  1996 Yr    3 of   26 Time  20:58:56
  Original Simulation        3   1  1996 Yr    3 of   26 Time  20:58:57
  Original Simulation        3   2  1996 Yr    3 of   26 Time  20:58:57
  Original Simulation        3   3  1996 Yr    3 of   26 Time  20:58:57
  Original Simulation        3   4  1996 Yr    3 of   26 Time  20:58:57
  Original Simulation        3   5  1996 Yr    3 of   26 Time  20:58:57
  Original Simulation        3   6  1996 Yr    3 of   26 Time  20:58:57
  Original Simulation        3   7  1996 Yr    3 of   26 Time  20:58:57
  Original Simulation        3   8  1996 Yr    3 of   26 Time  20:58:57
  Original Simulation        3   9  1996 Yr    3 of   26 Time  20:58:57
  Original Simulation        3  10  1996 Yr    3 of   26 Time  20:58:57
  Original Simulation        3  11  1996 Yr    3 of   26 Time  20:58:58
  Original Simulation        3  12  1996 Yr    3 of   26 Time  20:58:58
  Original Simulation        3  13  1996 Yr    3 of   26 Time  20:58:58
  Original Simulation        3  14  1996 Yr    3 of   26 Time  20:58:58
  Original Simulation        3  15  1996 Yr    3 of   26 Time  20:58:58
  Original Simulation        3  16  1996 Yr    3 of   26 Time  20:58:58
  Original Simulation        3  17  1996 Yr    3 of   26 Time  20:58:58
  Original Simulation        3  18  1996 Yr    3 of   26 Time  20:58:58
  Original Simulation        3  19  1996 Yr    3 of   26 Time  20:58:58
  Original Simulation        3  20  1996 Yr    3 of   26 Time  20:58:58
  Original Simulation        3  21  1996 Yr    3 of   26 Time  20:58:59
  Original Simulation        3  22  1996 Yr    3 of   26 Time  20:58:59
  Original Simulation        3  23  1996 Yr    3 of   26 Time  20:58:59
  Original Simulation        3  24  1996 Yr    3 of   26 Time  20:58:59
  Original Simulation        3  25  1996 Yr    3 of   26 Time  20:58:59
  Original Simulation        3  26  1996 Yr    3 of   26 Time  20:58:59
  Original Simulation        3  27  1996 Yr    3 of   26 Time  20:58:59
  Original Simulation        3  28  1996 Yr    3 of   26 Time  20:58:59
  Original Simulation        3  29  1996 Yr    3 of   26 Time  20:58:59
  Original Simulation        3  30  1996 Yr    3 of   26 Time  20:58:59
  Original Simulation        3  31  1996 Yr    3 of   26 Time  20:59: 0
  Original Simulation        4   1  1996 Yr    3 of   26 Time  20:59: 0
  Original Simulation        4   2  1996 Yr    3 of   26 Time  20:59: 0
  Original Simulation        4   3  1996 Yr    3 of   26 Time  20:59: 0
  Original Simulation        4   4  1996 Yr    3 of   26 Time  20:59: 0
  Original Simulation        4   5  1996 Yr    3 of   26 Time  20:59: 0
  Original Simulation        4   6  1996 Yr    3 of   26 Time  20:59: 0
  Original Simulation        4   7  1996 Yr    3 of   26 Time  20:59: 0
  Original Simulation        4   8  1996 Yr    3 of   26 Time  20:59: 0
  Original Simulation        4   9  1996 Yr    3 of   26 Time  20:59: 0
  Original Simulation        4  10  1996 Yr    3 of   26 Time  20:59: 1
  Original Simulation        4  11  1996 Yr    3 of   26 Time  20:59: 1
  Original Simulation        4  12  1996 Yr    3 of   26 Time  20:59: 1
  Original Simulation        4  13  1996 Yr    3 of   26 Time  20:59: 1
  Original Simulation        4  14  1996 Yr    3 of   26 Time  20:59: 1
  Original Simulation        4  15  1996 Yr    3 of   26 Time  20:59: 1
  Original Simulation        4  16  1996 Yr    3 of   26 Time  20:59: 1
  Original Simulation        4  17  1996 Yr    3 of   26 Time  20:59: 1
  Original Simulation        4  18  1996 Yr    3 of   26 Time  20:59: 1
  Original Simulation        4  19  1996 Yr    3 of   26 Time  20:59: 2
  Original Simulation        4  20  1996 Yr    3 of   26 Time  20:59: 2
  Original Simulation        4  21  1996 Yr    3 of   26 Time  20:59: 2
  Original Simulation        4  22  1996 Yr    3 of   26 Time  20:59: 2
  Original Simulation        4  23  1996 Yr    3 of   26 Time  20:59: 2
  Original Simulation        4  24  1996 Yr    3 of   26 Time  20:59: 2
  Original Simulation        4  25  1996 Yr    3 of   26 Time  20:59: 2
  Original Simulation        4  26  1996 Yr    3 of   26 Time  20:59: 2
  Original Simulation        4  27  1996 Yr    3 of   26 Time  20:59: 2
  Original Simulation        4  28  1996 Yr    3 of   26 Time  20:59: 2
  Original Simulation        4  29  1996 Yr    3 of   26 Time  20:59: 3
  Original Simulation        4  30  1996 Yr    3 of   26 Time  20:59: 3
  Original Simulation        5   1  1996 Yr    3 of   26 Time  20:59: 3
  Original Simulation        5   2  1996 Yr    3 of   26 Time  20:59: 3
  Original Simulation        5   3  1996 Yr    3 of   26 Time  20:59: 3
  Original Simulation        5   4  1996 Yr    3 of   26 Time  20:59: 3
  Original Simulation        5   5  1996 Yr    3 of   26 Time  20:59: 3
  Original Simulation        5   6  1996 Yr    3 of   26 Time  20:59: 3
  Original Simulation        5   7  1996 Yr    3 of   26 Time  20:59: 3
  Original Simulation        5   8  1996 Yr    3 of   26 Time  20:59: 4
  Original Simulation        5   9  1996 Yr    3 of   26 Time  20:59: 4
  Original Simulation        5  10  1996 Yr    3 of   26 Time  20:59: 4
  Original Simulation        5  11  1996 Yr    3 of   26 Time  20:59: 4
  Original Simulation        5  12  1996 Yr    3 of   26 Time  20:59: 4
  Original Simulation        5  13  1996 Yr    3 of   26 Time  20:59: 4
  Original Simulation        5  14  1996 Yr    3 of   26 Time  20:59: 4
  Original Simulation        5  15  1996 Yr    3 of   26 Time  20:59: 4
  Original Simulation        5  16  1996 Yr    3 of   26 Time  20:59: 4
  Original Simulation        5  17  1996 Yr    3 of   26 Time  20:59: 4
  Original Simulation        5  18  1996 Yr    3 of   26 Time  20:59: 5
  Original Simulation        5  19  1996 Yr    3 of   26 Time  20:59: 5
  Original Simulation        5  20  1996 Yr    3 of   26 Time  20:59: 5
  Original Simulation        5  21  1996 Yr    3 of   26 Time  20:59: 5
  Original Simulation        5  22  1996 Yr    3 of   26 Time  20:59: 5
  Original Simulation        5  23  1996 Yr    3 of   26 Time  20:59: 5
  Original Simulation        5  24  1996 Yr    3 of   26 Time  20:59: 5
  Original Simulation        5  25  1996 Yr    3 of   26 Time  20:59: 5
  Original Simulation        5  26  1996 Yr    3 of   26 Time  20:59: 5
  Original Simulation        5  27  1996 Yr    3 of   26 Time  20:59: 6
  Original Simulation        5  28  1996 Yr    3 of   26 Time  20:59: 6
  Original Simulation        5  29  1996 Yr    3 of   26 Time  20:59: 6
  Original Simulation        5  30  1996 Yr    3 of   26 Time  20:59: 6
  Original Simulation        5  31  1996 Yr    3 of   26 Time  20:59: 6
  Original Simulation        6   1  1996 Yr    3 of   26 Time  20:59: 6
  Original Simulation        6   2  1996 Yr    3 of   26 Time  20:59: 6
  Original Simulation        6   3  1996 Yr    3 of   26 Time  20:59: 6
  Original Simulation        6   4  1996 Yr    3 of   26 Time  20:59: 6
  Original Simulation        6   5  1996 Yr    3 of   26 Time  20:59: 6
  Original Simulation        6   6  1996 Yr    3 of   26 Time  20:59: 7
  Original Simulation        6   7  1996 Yr    3 of   26 Time  20:59: 7
  Original Simulation        6   8  1996 Yr    3 of   26 Time  20:59: 7
  Original Simulation        6   9  1996 Yr    3 of   26 Time  20:59: 7
  Original Simulation        6  10  1996 Yr    3 of   26 Time  20:59: 7
  Original Simulation        6  11  1996 Yr    3 of   26 Time  20:59: 7
  Original Simulation        6  12  1996 Yr    3 of   26 Time  20:59: 7
  Original Simulation        6  13  1996 Yr    3 of   26 Time  20:59: 7
  Original Simulation        6  14  1996 Yr    3 of   26 Time  20:59: 7
  Original Simulation        6  15  1996 Yr    3 of   26 Time  20:59: 8
  Original Simulation        6  16  1996 Yr    3 of   26 Time  20:59: 8
  Original Simulation        6  17  1996 Yr    3 of   26 Time  20:59: 8
  Original Simulation        6  18  1996 Yr    3 of   26 Time  20:59: 8
  Original Simulation        6  19  1996 Yr    3 of   26 Time  20:59: 8
  Original Simulation        6  20  1996 Yr    3 of   26 Time  20:59: 8
  Original Simulation        6  21  1996 Yr    3 of   26 Time  20:59: 8
  Original Simulation        6  22  1996 Yr    3 of   26 Time  20:59: 8
  Original Simulation        6  23  1996 Yr    3 of   26 Time  20:59: 8
  Original Simulation        6  24  1996 Yr    3 of   26 Time  20:59: 8
  Original Simulation        6  25  1996 Yr    3 of   26 Time  20:59: 9
  Original Simulation        6  26  1996 Yr    3 of   26 Time  20:59: 9
  Original Simulation        6  27  1996 Yr    3 of   26 Time  20:59: 9
  Original Simulation        6  28  1996 Yr    3 of   26 Time  20:59: 9
  Original Simulation        6  29  1996 Yr    3 of   26 Time  20:59: 9
  Original Simulation        6  30  1996 Yr    3 of   26 Time  20:59: 9
  Original Simulation        7   1  1996 Yr    3 of   26 Time  20:59: 9
  Original Simulation        7   2  1996 Yr    3 of   26 Time  20:59: 9
  Original Simulation        7   3  1996 Yr    3 of   26 Time  20:59: 9
  Original Simulation        7   4  1996 Yr    3 of   26 Time  20:59:10
  Original Simulation        7   5  1996 Yr    3 of   26 Time  20:59:10
  Original Simulation        7   6  1996 Yr    3 of   26 Time  20:59:10
  Original Simulation        7   7  1996 Yr    3 of   26 Time  20:59:10
  Original Simulation        7   8  1996 Yr    3 of   26 Time  20:59:10
  Original Simulation        7   9  1996 Yr    3 of   26 Time  20:59:10
  Original Simulation        7  10  1996 Yr    3 of   26 Time  20:59:10
  Original Simulation        7  11  1996 Yr    3 of   26 Time  20:59:10
  Original Simulation        7  12  1996 Yr    3 of   26 Time  20:59:10
  Original Simulation        7  13  1996 Yr    3 of   26 Time  20:59:11
  Original Simulation        7  14  1996 Yr    3 of   26 Time  20:59:11
  Original Simulation        7  15  1996 Yr    3 of   26 Time  20:59:11
  Original Simulation        7  16  1996 Yr    3 of   26 Time  20:59:11
  Original Simulation        7  17  1996 Yr    3 of   26 Time  20:59:11
  Original Simulation        7  18  1996 Yr    3 of   26 Time  20:59:11
  Original Simulation        7  19  1996 Yr    3 of   26 Time  20:59:11
  Original Simulation        7  20  1996 Yr    3 of   26 Time  20:59:11
  Original Simulation        7  21  1996 Yr    3 of   26 Time  20:59:11
  Original Simulation        7  22  1996 Yr    3 of   26 Time  20:59:11
  Original Simulation        7  23  1996 Yr    3 of   26 Time  20:59:12
  Original Simulation        7  24  1996 Yr    3 of   26 Time  20:59:12
  Original Simulation        7  25  1996 Yr    3 of   26 Time  20:59:12
  Original Simulation        7  26  1996 Yr    3 of   26 Time  20:59:12
  Original Simulation        7  27  1996 Yr    3 of   26 Time  20:59:12
  Original Simulation        7  28  1996 Yr    3 of   26 Time  20:59:12
  Original Simulation        7  29  1996 Yr    3 of   26 Time  20:59:12
  Original Simulation        7  30  1996 Yr    3 of   26 Time  20:59:12
  Original Simulation        7  31  1996 Yr    3 of   26 Time  20:59:12
  Original Simulation        8   1  1996 Yr    3 of   26 Time  20:59:12
  Original Simulation        8   2  1996 Yr    3 of   26 Time  20:59:13
  Original Simulation        8   3  1996 Yr    3 of   26 Time  20:59:13
  Original Simulation        8   4  1996 Yr    3 of   26 Time  20:59:13
  Original Simulation        8   5  1996 Yr    3 of   26 Time  20:59:13
  Original Simulation        8   6  1996 Yr    3 of   26 Time  20:59:13
  Original Simulation        8   7  1996 Yr    3 of   26 Time  20:59:13
  Original Simulation        8   8  1996 Yr    3 of   26 Time  20:59:13
  Original Simulation        8   9  1996 Yr    3 of   26 Time  20:59:13
  Original Simulation        8  10  1996 Yr    3 of   26 Time  20:59:13
  Original Simulation        8  11  1996 Yr    3 of   26 Time  20:59:14
  Original Simulation        8  12  1996 Yr    3 of   26 Time  20:59:14
  Original Simulation        8  13  1996 Yr    3 of   26 Time  20:59:14
  Original Simulation        8  14  1996 Yr    3 of   26 Time  20:59:14
  Original Simulation        8  15  1996 Yr    3 of   26 Time  20:59:14
  Original Simulation        8  16  1996 Yr    3 of   26 Time  20:59:14
  Original Simulation        8  17  1996 Yr    3 of   26 Time  20:59:14
  Original Simulation        8  18  1996 Yr    3 of   26 Time  20:59:14
  Original Simulation        8  19  1996 Yr    3 of   26 Time  20:59:14
  Original Simulation        8  20  1996 Yr    3 of   26 Time  20:59:14
  Original Simulation        8  21  1996 Yr    3 of   26 Time  20:59:15
  Original Simulation        8  22  1996 Yr    3 of   26 Time  20:59:15
  Original Simulation        8  23  1996 Yr    3 of   26 Time  20:59:15
  Original Simulation        8  24  1996 Yr    3 of   26 Time  20:59:15
  Original Simulation        8  25  1996 Yr    3 of   26 Time  20:59:15
  Original Simulation        8  26  1996 Yr    3 of   26 Time  20:59:15
  Original Simulation        8  27  1996 Yr    3 of   26 Time  20:59:15
  Original Simulation        8  28  1996 Yr    3 of   26 Time  20:59:15
  Original Simulation        8  29  1996 Yr    3 of   26 Time  20:59:15
  Original Simulation        8  30  1996 Yr    3 of   26 Time  20:59:16
  Original Simulation        8  31  1996 Yr    3 of   26 Time  20:59:16
  Original Simulation        9   1  1996 Yr    3 of   26 Time  20:59:16
  Original Simulation        9   2  1996 Yr    3 of   26 Time  20:59:16
  Original Simulation        9   3  1996 Yr    3 of   26 Time  20:59:16
  Original Simulation        9   4  1996 Yr    3 of   26 Time  20:59:16
  Original Simulation        9   5  1996 Yr    3 of   26 Time  20:59:16
  Original Simulation        9   6  1996 Yr    3 of   26 Time  20:59:16
  Original Simulation        9   7  1996 Yr    3 of   26 Time  20:59:16
  Original Simulation        9   8  1996 Yr    3 of   26 Time  20:59:16
  Original Simulation        9   9  1996 Yr    3 of   26 Time  20:59:17
  Original Simulation        9  10  1996 Yr    3 of   26 Time  20:59:17
  Original Simulation        9  11  1996 Yr    3 of   26 Time  20:59:17
  Original Simulation        9  12  1996 Yr    3 of   26 Time  20:59:17
  Original Simulation        9  13  1996 Yr    3 of   26 Time  20:59:17
  Original Simulation        9  14  1996 Yr    3 of   26 Time  20:59:17
  Original Simulation        9  15  1996 Yr    3 of   26 Time  20:59:17
  Original Simulation        9  16  1996 Yr    3 of   26 Time  20:59:17
  Original Simulation        9  17  1996 Yr    3 of   26 Time  20:59:17
  Original Simulation        9  18  1996 Yr    3 of   26 Time  20:59:17
  Original Simulation        9  19  1996 Yr    3 of   26 Time  20:59:18
  Original Simulation        9  20  1996 Yr    3 of   26 Time  20:59:18
  Original Simulation        9  21  1996 Yr    3 of   26 Time  20:59:18
  Original Simulation        9  22  1996 Yr    3 of   26 Time  20:59:18
  Original Simulation        9  23  1996 Yr    3 of   26 Time  20:59:18
  Original Simulation        9  24  1996 Yr    3 of   26 Time  20:59:18
  Original Simulation        9  25  1996 Yr    3 of   26 Time  20:59:18
  Original Simulation        9  26  1996 Yr    3 of   26 Time  20:59:18
  Original Simulation        9  27  1996 Yr    3 of   26 Time  20:59:18
  Original Simulation        9  28  1996 Yr    3 of   26 Time  20:59:18
  Original Simulation        9  29  1996 Yr    3 of   26 Time  20:59:19
  Original Simulation        9  30  1996 Yr    3 of   26 Time  20:59:19
  Original Simulation       10   1  1996 Yr    3 of   26 Time  20:59:19
  Original Simulation       10   2  1996 Yr    3 of   26 Time  20:59:19
  Original Simulation       10   3  1996 Yr    3 of   26 Time  20:59:19
  Original Simulation       10   4  1996 Yr    3 of   26 Time  20:59:19
  Original Simulation       10   5  1996 Yr    3 of   26 Time  20:59:19
  Original Simulation       10   6  1996 Yr    3 of   26 Time  20:59:19
  Original Simulation       10   7  1996 Yr    3 of   26 Time  20:59:19
  Original Simulation       10   8  1996 Yr    3 of   26 Time  20:59:20
  Original Simulation       10   9  1996 Yr    3 of   26 Time  20:59:20
  Original Simulation       10  10  1996 Yr    3 of   26 Time  20:59:20
  Original Simulation       10  11  1996 Yr    3 of   26 Time  20:59:20
  Original Simulation       10  12  1996 Yr    3 of   26 Time  20:59:20
  Original Simulation       10  13  1996 Yr    3 of   26 Time  20:59:20
  Original Simulation       10  14  1996 Yr    3 of   26 Time  20:59:20
  Original Simulation       10  15  1996 Yr    3 of   26 Time  20:59:20
  Original Simulation       10  16  1996 Yr    3 of   26 Time  20:59:20
  Original Simulation       10  17  1996 Yr    3 of   26 Time  20:59:20
  Original Simulation       10  18  1996 Yr    3 of   26 Time  20:59:21
  Original Simulation       10  19  1996 Yr    3 of   26 Time  20:59:21
  Original Simulation       10  20  1996 Yr    3 of   26 Time  20:59:21
  Original Simulation       10  21  1996 Yr    3 of   26 Time  20:59:21
  Original Simulation       10  22  1996 Yr    3 of   26 Time  20:59:21
  Original Simulation       10  23  1996 Yr    3 of   26 Time  20:59:21
  Original Simulation       10  24  1996 Yr    3 of   26 Time  20:59:21
  Original Simulation       10  25  1996 Yr    3 of   26 Time  20:59:21
  Original Simulation       10  26  1996 Yr    3 of   26 Time  20:59:21
  Original Simulation       10  27  1996 Yr    3 of   26 Time  20:59:21
  Original Simulation       10  28  1996 Yr    3 of   26 Time  20:59:22
  Original Simulation       10  29  1996 Yr    3 of   26 Time  20:59:22
  Original Simulation       10  30  1996 Yr    3 of   26 Time  20:59:22
  Original Simulation       10  31  1996 Yr    3 of   26 Time  20:59:22
  Original Simulation       11   1  1996 Yr    3 of   26 Time  20:59:22
  Original Simulation       11   2  1996 Yr    3 of   26 Time  20:59:22
  Original Simulation       11   3  1996 Yr    3 of   26 Time  20:59:22
  Original Simulation       11   4  1996 Yr    3 of   26 Time  20:59:22
  Original Simulation       11   5  1996 Yr    3 of   26 Time  20:59:22
  Original Simulation       11   6  1996 Yr    3 of   26 Time  20:59:23
  Original Simulation       11   7  1996 Yr    3 of   26 Time  20:59:23
  Original Simulation       11   8  1996 Yr    3 of   26 Time  20:59:23
  Original Simulation       11   9  1996 Yr    3 of   26 Time  20:59:23
  Original Simulation       11  10  1996 Yr    3 of   26 Time  20:59:23
  Original Simulation       11  11  1996 Yr    3 of   26 Time  20:59:23
  Original Simulation       11  12  1996 Yr    3 of   26 Time  20:59:23
  Original Simulation       11  13  1996 Yr    3 of   26 Time  20:59:23
  Original Simulation       11  14  1996 Yr    3 of   26 Time  20:59:23
  Original Simulation       11  15  1996 Yr    3 of   26 Time  20:59:23
  Original Simulation       11  16  1996 Yr    3 of   26 Time  20:59:24
  Original Simulation       11  17  1996 Yr    3 of   26 Time  20:59:24
  Original Simulation       11  18  1996 Yr    3 of   26 Time  20:59:24
  Original Simulation       11  19  1996 Yr    3 of   26 Time  20:59:24
  Original Simulation       11  20  1996 Yr    3 of   26 Time  20:59:24
  Original Simulation       11  21  1996 Yr    3 of   26 Time  20:59:24
  Original Simulation       11  22  1996 Yr    3 of   26 Time  20:59:24
  Original Simulation       11  23  1996 Yr    3 of   26 Time  20:59:24
  Original Simulation       11  24  1996 Yr    3 of   26 Time  20:59:24
  Original Simulation       11  25  1996 Yr    3 of   26 Time  20:59:24
  Original Simulation       11  26  1996 Yr    3 of   26 Time  20:59:25
  Original Simulation       11  27  1996 Yr    3 of   26 Time  20:59:25
  Original Simulation       11  28  1996 Yr    3 of   26 Time  20:59:25
  Original Simulation       11  29  1996 Yr    3 of   26 Time  20:59:25
  Original Simulation       11  30  1996 Yr    3 of   26 Time  20:59:25
  Original Simulation       12   1  1996 Yr    3 of   26 Time  20:59:25
  Original Simulation       12   2  1996 Yr    3 of   26 Time  20:59:25
  Original Simulation       12   3  1996 Yr    3 of   26 Time  20:59:25
  Original Simulation       12   4  1996 Yr    3 of   26 Time  20:59:25
  Original Simulation       12   5  1996 Yr    3 of   26 Time  20:59:26
  Original Simulation       12   6  1996 Yr    3 of   26 Time  20:59:26
  Original Simulation       12   7  1996 Yr    3 of   26 Time  20:59:26
  Original Simulation       12   8  1996 Yr    3 of   26 Time  20:59:26
  Original Simulation       12   9  1996 Yr    3 of   26 Time  20:59:26
  Original Simulation       12  10  1996 Yr    3 of   26 Time  20:59:26
  Original Simulation       12  11  1996 Yr    3 of   26 Time  20:59:26
  Original Simulation       12  12  1996 Yr    3 of   26 Time  20:59:26
  Original Simulation       12  13  1996 Yr    3 of   26 Time  20:59:26
  Original Simulation       12  14  1996 Yr    3 of   26 Time  20:59:26
  Original Simulation       12  15  1996 Yr    3 of   26 Time  20:59:27
  Original Simulation       12  16  1996 Yr    3 of   26 Time  20:59:27
  Original Simulation       12  17  1996 Yr    3 of   26 Time  20:59:27
  Original Simulation       12  18  1996 Yr    3 of   26 Time  20:59:27
  Original Simulation       12  19  1996 Yr    3 of   26 Time  20:59:27
  Original Simulation       12  20  1996 Yr    3 of   26 Time  20:59:27
  Original Simulation       12  21  1996 Yr    3 of   26 Time  20:59:27
  Original Simulation       12  22  1996 Yr    3 of   26 Time  20:59:27
  Original Simulation       12  23  1996 Yr    3 of   26 Time  20:59:27
  Original Simulation       12  24  1996 Yr    3 of   26 Time  20:59:27
  Original Simulation       12  25  1996 Yr    3 of   26 Time  20:59:28
  Original Simulation       12  26  1996 Yr    3 of   26 Time  20:59:28
  Original Simulation       12  27  1996 Yr    3 of   26 Time  20:59:28
  Original Simulation       12  28  1996 Yr    3 of   26 Time  20:59:28
  Original Simulation       12  29  1996 Yr    3 of   26 Time  20:59:28
  Original Simulation       12  30  1996 Yr    3 of   26 Time  20:59:28
  Original Simulation       12  31  1996 Yr    3 of   26 Time  20:59:28
  Original Simulation        1   1  1997 Yr    4 of   26 Time  20:59:28
  Original Simulation        1   2  1997 Yr    4 of   26 Time  20:59:28
  Original Simulation        1   3  1997 Yr    4 of   26 Time  20:59:28
  Original Simulation        1   4  1997 Yr    4 of   26 Time  20:59:29
  Original Simulation        1   5  1997 Yr    4 of   26 Time  20:59:29
  Original Simulation        1   6  1997 Yr    4 of   26 Time  20:59:29
[...]
  Original Simulation       11  12  2009 Yr   16 of   26 Time  21: 8:22
  Original Simulation       11  13  2009 Yr   16 of   26 Time  21: 8:22
  Original Simulation       11  14  2009 Yr   16 of   26 Time  21: 8:23
  Original Simulation       11  15  2009 Yr   16 of   26 Time  21: 8:23
  Original Simulation       11  16  2009 Yr   16 of   26 Time  21: 8:23
  Original Simulation       11  17  2009 Yr   16 of   26 Time  21: 8:23
  Original Simulation       11  18  2009 Yr   16 of   26 Time  21: 8:23
  Original Simulation       11  19  2009 Yr   16 of   26 Time  21: 8:23
  Original Simulation       11  20  2009 Yr   16 of   26 Time  21: 8:23
  Original Simulation       11  21  2009 Yr   16 of   26 Time  21: 8:23
  Original Simulation       11  22  2009 Yr   16 of   26 Time  21: 8:23
  Original Simulation       11  23  2009 Yr   16 of   26 Time  21: 8:24
  Original Simulation       11  24  2009 Yr   16 of   26 Time  21: 8:24
  Original Simulation       11  25  2009 Yr   16 of   26 Time  21: 8:24
  Original Simulation       11  26  2009 Yr   16 of   26 Time  21: 8:24
  Original Simulation       11  27  2009 Yr   16 of   26 Time  21: 8:24
  Original Simulation       11  28  2009 Yr   16 of   26 Time  21: 8:24
  Original Simulation       11  29  2009 Yr   16 of   26 Time  21: 8:24
  Original Simulation       11  30  2009 Yr   16 of   26 Time  21: 8:24
  Original Simulation       12   1  2009 Yr   16 of   26 Time  21: 8:24
  Original Simulation       12   2  2009 Yr   16 of   26 Time  21: 8:25
  Original Simulation       12   3  2009 Yr   16 of   26 Time  21: 8:25
  Original Simulation       12   4  2009 Yr   16 of   26 Time  21: 8:25
  Original Simulation       12   5  2009 Yr   16 of   26 Time  21: 8:25
  Original Simulation       12   6  2009 Yr   16 of   26 Time  21: 8:25
  Original Simulation       12   7  2009 Yr   16 of   26 Time  21: 8:25
  Original Simulation       12   8  2009 Yr   16 of   26 Time  21: 8:25
  Original Simulation       12   9  2009 Yr   16 of   26 Time  21: 8:25
  Original Simulation       12  10  2009 Yr   16 of   26 Time  21: 8:25
  Original Simulation       12  11  2009 Yr   16 of   26 Time  21: 8:26
  Original Simulation       12  12  2009 Yr   16 of   26 Time  21: 8:26
  Original Simulation       12  13  2009 Yr   16 of   26 Time  21: 8:26
  Original Simulation       12  14  2009 Yr   16 of   26 Time  21: 8:26
  Original Simulation       12  15  2009 Yr   16 of   26 Time  21: 8:26
  Original Simulation       12  16  2009 Yr   16 of   26 Time  21: 8:26
  Original Simulation       12  17  2009 Yr   16 of   26 Time  21: 8:26
  Original Simulation       12  18  2009 Yr   16 of   26 Time  21: 8:26
  Original Simulation       12  19  2009 Yr   16 of   26 Time  21: 8:26
  Original Simulation       12  20  2009 Yr   16 of   26 Time  21: 8:26
  Original Simulation       12  21  2009 Yr   16 of   26 Time  21: 8:27
  Original Simulation       12  22  2009 Yr   16 of   26 Time  21: 8:27
  Original Simulation       12  23  2009 Yr   16 of   26 Time  21: 8:27
  Original Simulation       12  24  2009 Yr   16 of   26 Time  21: 8:27
  Original Simulation       12  25  2009 Yr   16 of   26 Time  21: 8:27
  Original Simulation       12  26  2009 Yr   16 of   26 Time  21: 8:27
  Original Simulation       12  27  2009 Yr   16 of   26 Time  21: 8:27
  Original Simulation       12  28  2009 Yr   16 of   26 Time  21: 8:27
  Original Simulation       12  29  2009 Yr   16 of   26 Time  21: 8:27
  Original Simulation       12  30  2009 Yr   16 of   26 Time  21: 8:28
  Original Simulation       12  31  2009 Yr   16 of   26 Time  21: 8:28
  Original Simulation        1   1  2010 Yr   17 of   26 Time  21: 8:28
  Original Simulation        1   2  2010 Yr   17 of   26 Time  21: 8:28
  Original Simulation        1   3  2010 Yr   17 of   26 Time  21: 8:28
  Original Simulation        1   4  2010 Yr   17 of   26 Time  21: 8:28
  Original Simulation        1   5  2010 Yr   17 of   26 Time  21: 8:28
  Original Simulation        1   6  2010 Yr   17 of   26 Time  21: 8:28
  Original Simulation        1   7  2010 Yr   17 of   26 Time  21: 8:28
  Original Simulation        1   8  2010 Yr   17 of   26 Time  21: 8:29
  Original Simulation        1   9  2010 Yr   17 of   26 Time  21: 8:29
  Original Simulation        1  10  2010 Yr   17 of   26 Time  21: 8:29
  Original Simulation        1  11  2010 Yr   17 of   26 Time  21: 8:29
  Original Simulation        1  12  2010 Yr   17 of   26 Time  21: 8:29
  Original Simulation        1  13  2010 Yr   17 of   26 Time  21: 8:29
  Original Simulation        1  14  2010 Yr   17 of   26 Time  21: 8:29
  Original Simulation        1  15  2010 Yr   17 of   26 Time  21: 8:29
  Original Simulation        1  16  2010 Yr   17 of   26 Time  21: 8:29
  Original Simulation        1  17  2010 Yr   17 of   26 Time  21: 8:30
  Original Simulation        1  18  2010 Yr   17 of   26 Time  21: 8:30
  Original Simulation        1  19  2010 Yr   17 of   26 Time  21: 8:30
  Original Simulation        1  20  2010 Yr   17 of   26 Time  21: 8:30
  Original Simulation        1  21  2010 Yr   17 of   26 Time  21: 8:30
  Original Simulation        1  22  2010 Yr   17 of   26 Time  21: 8:30
  Original Simulation        1  23  2010 Yr   17 of   26 Time  21: 8:30
  Original Simulation        1  24  2010 Yr   17 of   26 Time  21: 8:30
  Original Simulation        1  25  2010 Yr   17 of   26 Time  21: 8:30
  Original Simulation        1  26  2010 Yr   17 of   26 Time  21: 8:30
  Original Simulation        1  27  2010 Yr   17 of   26 Time  21: 8:31
  Original Simulation        1  28  2010 Yr   17 of   26 Time  21: 8:31
  Original Simulation        1  29  2010 Yr   17 of   26 Time  21: 8:31
  Original Simulation        1  30  2010 Yr   17 of   26 Time  21: 8:31
  Original Simulation        1  31  2010 Yr   17 of   26 Time  21: 8:31
  Original Simulation        2   1  2010 Yr   17 of   26 Time  21: 8:31
  Original Simulation        2   2  2010 Yr   17 of   26 Time  21: 8:31
  Original Simulation        2   3  2010 Yr   17 of   26 Time  21: 8:31
  Original Simulation        2   4  2010 Yr   17 of   26 Time  21: 8:32
  Original Simulation        2   5  2010 Yr   17 of   26 Time  21: 8:32
  Original Simulation        2   6  2010 Yr   17 of   26 Time  21: 8:32
  Original Simulation        2   7  2010 Yr   17 of   26 Time  21: 8:32
  Original Simulation        2   8  2010 Yr   17 of   26 Time  21: 8:32
  Original Simulation        2   9  2010 Yr   17 of   26 Time  21: 8:32
  Original Simulation        2  10  2010 Yr   17 of   26 Time  21: 8:32
  Original Simulation        2  11  2010 Yr   17 of   26 Time  21: 8:32
  Original Simulation        2  12  2010 Yr   17 of   26 Time  21: 8:32
  Original Simulation        2  13  2010 Yr   17 of   26 Time  21: 8:33
  Original Simulation        2  14  2010 Yr   17 of   26 Time  21: 8:33
  Original Simulation        2  15  2010 Yr   17 of   26 Time  21: 8:33
  Original Simulation        2  16  2010 Yr   17 of   26 Time  21: 8:33
  Original Simulation        2  17  2010 Yr   17 of   26 Time  21: 8:33
  Original Simulation        2  18  2010 Yr   17 of   26 Time  21: 8:33
  Original Simulation        2  19  2010 Yr   17 of   26 Time  21: 8:33
  Original Simulation        2  20  2010 Yr   17 of   26 Time  21: 8:33
  Original Simulation        2  21  2010 Yr   17 of   26 Time  21: 8:33
  Original Simulation        2  22  2010 Yr   17 of   26 Time  21: 8:33
  Original Simulation        2  23  2010 Yr   17 of   26 Time  21: 8:34
  Original Simulation        2  24  2010 Yr   17 of   26 Time  21: 8:34
  Original Simulation        2  25  2010 Yr   17 of   26 Time  21: 8:34
  Original Simulation        2  26  2010 Yr   17 of   26 Time  21: 8:34
  Original Simulation        2  27  2010 Yr   17 of   26 Time  21: 8:34
  Original Simulation        2  28  2010 Yr   17 of   26 Time  21: 8:34
  Original Simulation        3   1  2010 Yr   17 of   26 Time  21: 8:34
  Original Simulation        3   2  2010 Yr   17 of   26 Time  21: 8:34
  Original Simulation        3   3  2010 Yr   17 of   26 Time  21: 8:35
  Original Simulation        3   4  2010 Yr   17 of   26 Time  21: 8:35
  Original Simulation        3   5  2010 Yr   17 of   26 Time  21: 8:35
  Original Simulation        3   6  2010 Yr   17 of   26 Time  21: 8:35
  Original Simulation        3   7  2010 Yr   17 of   26 Time  21: 8:35
  Original Simulation        3   8  2010 Yr   17 of   26 Time  21: 8:35
  Original Simulation        3   9  2010 Yr   17 of   26 Time  21: 8:35
  Original Simulation        3  10  2010 Yr   17 of   26 Time  21: 8:35
  Original Simulation        3  11  2010 Yr   17 of   26 Time  21: 8:35
  Original Simulation        3  12  2010 Yr   17 of   26 Time  21: 8:36
  Original Simulation        3  13  2010 Yr   17 of   26 Time  21: 8:36
  Original Simulation        3  14  2010 Yr   17 of   26 Time  21: 8:36
  Original Simulation        3  15  2010 Yr   17 of   26 Time  21: 8:36
  Original Simulation        3  16  2010 Yr   17 of   26 Time  21: 8:36
  Original Simulation        3  17  2010 Yr   17 of   26 Time  21: 8:36
  Original Simulation        3  18  2010 Yr   17 of   26 Time  21: 8:36
  Original Simulation        3  19  2010 Yr   17 of   26 Time  21: 8:36
  Original Simulation        3  20  2010 Yr   17 of   26 Time  21: 8:36
  Original Simulation        3  21  2010 Yr   17 of   26 Time  21: 8:37
  Original Simulation        3  22  2010 Yr   17 of   26 Time  21: 8:37
  Original Simulation        3  23  2010 Yr   17 of   26 Time  21: 8:37
  Original Simulation        3  24  2010 Yr   17 of   26 Time  21: 8:37
  Original Simulation        3  25  2010 Yr   17 of   26 Time  21: 8:37
  Original Simulation        3  26  2010 Yr   17 of   26 Time  21: 8:37
  Original Simulation        3  27  2010 Yr   17 of   26 Time  21: 8:37
  Original Simulation        3  28  2010 Yr   17 of   26 Time  21: 8:37
  Original Simulation        3  29  2010 Yr   17 of   26 Time  21: 8:37
  Original Simulation        3  30  2010 Yr   17 of   26 Time  21: 8:38
  Original Simulation        3  31  2010 Yr   17 of   26 Time  21: 8:38
  Original Simulation        4   1  2010 Yr   17 of   26 Time  21: 8:38
  Original Simulation        4   2  2010 Yr   17 of   26 Time  21: 8:38
  Original Simulation        4   3  2010 Yr   17 of   26 Time  21: 8:38
  Original Simulation        4   4  2010 Yr   17 of   26 Time  21: 8:38
  Original Simulation        4   5  2010 Yr   17 of   26 Time  21: 8:38
  Original Simulation        4   6  2010 Yr   17 of   26 Time  21: 8:38
  Original Simulation        4   7  2010 Yr   17 of   26 Time  21: 8:38
  Original Simulation        4   8  2010 Yr   17 of   26 Time  21: 8:39
  Original Simulation        4   9  2010 Yr   17 of   26 Time  21: 8:39
  Original Simulation        4  10  2010 Yr   17 of   26 Time  21: 8:39
  Original Simulation        4  11  2010 Yr   17 of   26 Time  21: 8:39
  Original Simulation        4  12  2010 Yr   17 of   26 Time  21: 8:39
  Original Simulation        4  13  2010 Yr   17 of   26 Time  21: 8:39
  Original Simulation        4  14  2010 Yr   17 of   26 Time  21: 8:39
  Original Simulation        4  15  2010 Yr   17 of   26 Time  21: 8:39
  Original Simulation        4  16  2010 Yr   17 of   26 Time  21: 8:40
  Original Simulation        4  17  2010 Yr   17 of   26 Time  21: 8:40
  Original Simulation        4  18  2010 Yr   17 of   26 Time  21: 8:40
  Original Simulation        4  19  2010 Yr   17 of   26 Time  21: 8:40
  Original Simulation        4  20  2010 Yr   17 of   26 Time  21: 8:40
  Original Simulation        4  21  2010 Yr   17 of   26 Time  21: 8:40
  Original Simulation        4  22  2010 Yr   17 of   26 Time  21: 8:40
  Original Simulation        4  23  2010 Yr   17 of   26 Time  21: 8:40
  Original Simulation        4  24  2010 Yr   17 of   26 Time  21: 8:40
  Original Simulation        4  25  2010 Yr   17 of   26 Time  21: 8:41
  Original Simulation        4  26  2010 Yr   17 of   26 Time  21: 8:41
  Original Simulation        4  27  2010 Yr   17 of   26 Time  21: 8:41
  Original Simulation        4  28  2010 Yr   17 of   26 Time  21: 8:41
  Original Simulation        4  29  2010 Yr   17 of   26 Time  21: 8:41
  Original Simulation        4  30  2010 Yr   17 of   26 Time  21: 8:41
  Original Simulation        5   1  2010 Yr   17 of   26 Time  21: 8:41
  Original Simulation        5   2  2010 Yr   17 of   26 Time  21: 8:41
  Original Simulation        5   3  2010 Yr   17 of   26 Time  21: 8:41
  Original Simulation        5   4  2010 Yr   17 of   26 Time  21: 8:42
  Original Simulation        5   5  2010 Yr   17 of   26 Time  21: 8:42
  Original Simulation        5   6  2010 Yr   17 of   26 Time  21: 8:42
  Original Simulation        5   7  2010 Yr   17 of   26 Time  21: 8:42
  Original Simulation        5   8  2010 Yr   17 of   26 Time  21: 8:42
  Original Simulation        5   9  2010 Yr   17 of   26 Time  21: 8:42
  Original Simulation        5  10  2010 Yr   17 of   26 Time  21: 8:42
  Original Simulation        5  11  2010 Yr   17 of   26 Time  21: 8:42
  Original Simulation        5  12  2010 Yr   17 of   26 Time  21: 8:42
  Original Simulation        5  13  2010 Yr   17 of   26 Time  21: 8:43
  Original Simulation        5  14  2010 Yr   17 of   26 Time  21: 8:43
  Original Simulation        5  15  2010 Yr   17 of   26 Time  21: 8:43
  Original Simulation        5  16  2010 Yr   17 of   26 Time  21: 8:43
  Original Simulation        5  17  2010 Yr   17 of   26 Time  21: 8:43
  Original Simulation        5  18  2010 Yr   17 of   26 Time  21: 8:43
  Original Simulation        5  19  2010 Yr   17 of   26 Time  21: 8:43
  Original Simulation        5  20  2010 Yr   17 of   26 Time  21: 8:43
  Original Simulation        5  21  2010 Yr   17 of   26 Time  21: 8:43
  Original Simulation        5  22  2010 Yr   17 of   26 Time  21: 8:44
  Original Simulation        5  23  2010 Yr   17 of   26 Time  21: 8:44
  Original Simulation        5  24  2010 Yr   17 of   26 Time  21: 8:44
  Original Simulation        5  25  2010 Yr   17 of   26 Time  21: 8:44
  Original Simulation        5  26  2010 Yr   17 of   26 Time  21: 8:44
  Original Simulation        5  27  2010 Yr   17 of   26 Time  21: 8:44
  Original Simulation        5  28  2010 Yr   17 of   26 Time  21: 8:44
  Original Simulation        5  29  2010 Yr   17 of   26 Time  21: 8:44
  Original Simulation        5  30  2010 Yr   17 of   26 Time  21: 8:44
  Original Simulation        5  31  2010 Yr   17 of   26 Time  21: 8:45
  Original Simulation        6   1  2010 Yr   17 of   26 Time  21: 8:45
  Original Simulation        6   2  2010 Yr   17 of   26 Time  21: 8:45
  Original Simulation        6   3  2010 Yr   17 of   26 Time  21: 8:45
  Original Simulation        6   4  2010 Yr   17 of   26 Time  21: 8:45
  Original Simulation        6   5  2010 Yr   17 of   26 Time  21: 8:45
  Original Simulation        6   6  2010 Yr   17 of   26 Time  21: 8:45
  Original Simulation        6   7  2010 Yr   17 of   26 Time  21: 8:45
  Original Simulation        6   8  2010 Yr   17 of   26 Time  21: 8:46
  Original Simulation        6   9  2010 Yr   17 of   26 Time  21: 8:46
  Original Simulation        6  10  2010 Yr   17 of   26 Time  21: 8:46
  Original Simulation        6  11  2010 Yr   17 of   26 Time  21: 8:46
  Original Simulation        6  12  2010 Yr   17 of   26 Time  21: 8:46
  Original Simulation        6  13  2010 Yr   17 of   26 Time  21: 8:46
  Original Simulation        6  14  2010 Yr   17 of   26 Time  21: 8:46
  Original Simulation        6  15  2010 Yr   17 of   26 Time  21: 8:46
  Original Simulation        6  16  2010 Yr   17 of   26 Time  21: 8:46
  Original Simulation        6  17  2010 Yr   17 of   26 Time  21: 8:47
  Original Simulation        6  18  2010 Yr   17 of   26 Time  21: 8:47
  Original Simulation        6  19  2010 Yr   17 of   26 Time  21: 8:47
  Original Simulation        6  20  2010 Yr   17 of   26 Time  21: 8:47
  Original Simulation        6  21  2010 Yr   17 of   26 Time  21: 8:47
  Original Simulation        6  22  2010 Yr   17 of   26 Time  21: 8:47
  Original Simulation        6  23  2010 Yr   17 of   26 Time  21: 8:47
  Original Simulation        6  24  2010 Yr   17 of   26 Time  21: 8:47
  Original Simulation        6  25  2010 Yr   17 of   26 Time  21: 8:48
  Original Simulation        6  26  2010 Yr   17 of   26 Time  21: 8:48
  Original Simulation        6  27  2010 Yr   17 of   26 Time  21: 8:48
  Original Simulation        6  28  2010 Yr   17 of   26 Time  21: 8:48
  Original Simulation        6  29  2010 Yr   17 of   26 Time  21: 8:48
  Original Simulation        6  30  2010 Yr   17 of   26 Time  21: 8:48
  Original Simulation        7   1  2010 Yr   17 of   26 Time  21: 8:48
  Original Simulation        7   2  2010 Yr   17 of   26 Time  21: 8:48
  Original Simulation        7   3  2010 Yr   17 of   26 Time  21: 8:49
  Original Simulation        7   4  2010 Yr   17 of   26 Time  21: 8:49
  Original Simulation        7   5  2010 Yr   17 of   26 Time  21: 8:49
  Original Simulation        7   6  2010 Yr   17 of   26 Time  21: 8:49
  Original Simulation        7   7  2010 Yr   17 of   26 Time  21: 8:49
  Original Simulation        7   8  2010 Yr   17 of   26 Time  21: 8:49
  Original Simulation        7   9  2010 Yr   17 of   26 Time  21: 8:49
  Original Simulation        7  10  2010 Yr   17 of   26 Time  21: 8:49
  Original Simulation        7  11  2010 Yr   17 of   26 Time  21: 8:50
  Original Simulation        7  12  2010 Yr   17 of   26 Time  21: 8:50
  Original Simulation        7  13  2010 Yr   17 of   26 Time  21: 8:50
  Original Simulation        7  14  2010 Yr   17 of   26 Time  21: 8:50
  Original Simulation        7  15  2010 Yr   17 of   26 Time  21: 8:50
  Original Simulation        7  16  2010 Yr   17 of   26 Time  21: 8:50
  Original Simulation        7  17  2010 Yr   17 of   26 Time  21: 8:50
  Original Simulation        7  18  2010 Yr   17 of   26 Time  21: 8:50
  Original Simulation        7  19  2010 Yr   17 of   26 Time  21: 8:50
  Original Simulation        7  20  2010 Yr   17 of   26 Time  21: 8:51
  Original Simulation        7  21  2010 Yr   17 of   26 Time  21: 8:51
  Original Simulation        7  22  2010 Yr   17 of   26 Time  21: 8:51
  Original Simulation        7  23  2010 Yr   17 of   26 Time  21: 8:51
  Original Simulation        7  24  2010 Yr   17 of   26 Time  21: 8:51
  Original Simulation        7  25  2010 Yr   17 of   26 Time  21: 8:51
  Original Simulation        7  26  2010 Yr   17 of   26 Time  21: 8:51
  Original Simulation        7  27  2010 Yr   17 of   26 Time  21: 8:51
  Original Simulation        7  28  2010 Yr   17 of   26 Time  21: 8:51
  Original Simulation        7  29  2010 Yr   17 of   26 Time  21: 8:52
  Original Simulation        7  30  2010 Yr   17 of   26 Time  21: 8:52
  Original Simulation        7  31  2010 Yr   17 of   26 Time  21: 8:52
  Original Simulation        8   1  2010 Yr   17 of   26 Time  21: 8:52
  Original Simulation        8   2  2010 Yr   17 of   26 Time  21: 8:52
  Original Simulation        8   3  2010 Yr   17 of   26 Time  21: 8:52
  Original Simulation        8   4  2010 Yr   17 of   26 Time  21: 8:52
  Original Simulation        8   5  2010 Yr   17 of   26 Time  21: 8:52
  Original Simulation        8   6  2010 Yr   17 of   26 Time  21: 8:53
  Original Simulation        8   7  2010 Yr   17 of   26 Time  21: 8:53
  Original Simulation        8   8  2010 Yr   17 of   26 Time  21: 8:53
  Original Simulation        8   9  2010 Yr   17 of   26 Time  21: 8:53
  Original Simulation        8  10  2010 Yr   17 of   26 Time  21: 8:53
  Original Simulation        8  11  2010 Yr   17 of   26 Time  21: 8:53
  Original Simulation        8  12  2010 Yr   17 of   26 Time  21: 8:53
  Original Simulation        8  13  2010 Yr   17 of   26 Time  21: 8:53
  Original Simulation        8  14  2010 Yr   17 of   26 Time  21: 8:53
  Original Simulation        8  15  2010 Yr   17 of   26 Time  21: 8:54
