                   SWAT+               
             Revision 61.0            
      Soil & Water Assessment Tool    
               PC Version             
    Program reading . . . executing


  Date of Sim  11/ 5/2024 Time  13: 3:19
 reading from precipitation file         Time  13: 3:19
 reading from temperature file           Time  13: 3:19
 reading from solar radiation file       Time  13: 3:22
 reading from relative humidity file     Time  13: 3:22
 reading from wind file                  Time  13: 3:23
 reading from wgn file                   Time  13: 3:23
 reading from wx station file            Time  13: 3:23
