 230207_schoeps            SWAT+ Jan 11 2024        MODULAR Rev 2024.61.0                                 
                                        zmx       usle_k       sumfc       sumul      usle_p     usle_ls        esco        epco     cn3_swf       perco     latq_co   tiledrain 
 sname           hydgrp                 (mm)                    (mm)        (mm)                                                                                     0=notile;1=tile;
LEG_863         C                  1500.0000      0.0000    260.5000    363.2115      0.6500      0.6293      0.9500      0.9500      0.3000      0.5000      0.2000           0
LEG_863         C                  1500.0000      0.0000    260.5000    363.2115      0.6500      1.0485      0.9500      0.9500      0.0000      0.5000      0.9000           0
LEG_863         C                  1500.0000      0.0000    260.5000    363.2115      0.6500      0.7293      0.9500      0.9500      0.0000      0.5000      0.9000           0
LEG_778         C                  2000.0000      0.0000    227.0000    519.7825      0.6500      0.9625      0.9500      0.9500      0.0000      0.5000      0.9000           0
LEG_863         C                  1500.0000      0.0000    260.5000    363.2115      0.6500      0.8165      0.9500      0.9500      0.0000      0.5000      0.9000           0
LEG_824         D                  2000.0000      0.0000    334.0000    486.8867      0.7500      0.4481      0.9500      0.9500      0.0000      0.0500      0.9000           0
LEG_824         D                  2000.0000      0.0000    334.0000    486.8867      0.7500      0.8338      0.9500      0.9500      0.0000      0.0500      0.9000           0
LEG_778         C                  2000.0000      0.0000    227.0000    519.7825      0.7500      0.6248      0.9500      0.9500      0.3000      0.5000      0.2000           0
LEG_824         D                  2000.0000      0.0000    334.0000    486.8867      0.7500      0.7061      0.9500      0.9500      0.0000      0.0500      0.9000           0
LEG_824         D                  2000.0000      0.0000    334.0000    486.8867      0.7500      0.6338      0.9500      0.9500      0.0000      0.0500      0.9000           0
LEG_778         C                  2000.0000      0.0000    227.0000    519.7825      0.7500      0.9344      0.9500      0.9500      0.0000      0.5000      0.9000           0
LEG_824         D                  2000.0000      0.0000    334.0000    486.8867      0.9500      0.8795      0.9500      0.9500      0.0000      0.0500      0.9000           0
LEG_824         D                  2000.0000      0.0000    334.0000    486.8867      0.9500      0.7372      0.9500      0.9500      0.0000      0.0500      0.9000           0
LEG_863         C                  1500.0000      0.0000    260.5000    363.2115      0.9500      1.0151      0.9500      0.9500      0.0000      0.5000      0.9000           0
LEG_863         C                  1500.0000      0.0000    260.5000    363.2115      0.9500      0.8581      0.9500      0.9500      0.0000      0.5000      0.9000           0
LEG_776         D                  1500.0000      0.0000    206.4000    508.8572      0.9500      1.0529      0.9500      0.9500      0.0000      0.0500      0.9000           0
LEG_776         D                  1500.0000      0.0000    206.4000    508.8572      0.9500      0.8083      0.9500      0.9500      0.0000      0.0500      0.9000           0
LEG_776         D                  1500.0000      0.0000    206.4000    508.8572      0.9500      0.7361      0.9500      0.9500      0.0000      0.0500      0.9000           0
LEG_776         D                  1500.0000      0.0000    206.4000    508.8572      0.8500      1.1401      0.9500      0.9500      0.0000      0.0500      0.9000           0
LEG_803         C                  1300.0000      0.0000    173.8000    501.8698      0.7500      0.7635      0.9500      0.9500      0.0000      0.5000      0.9000           0
LEG_776         D                  1500.0000      0.0000    206.4000    508.8572      0.9500      0.9096      0.9500      0.9500      0.0000      0.0500      0.9000           0
LEG_803         C                  1300.0000      0.0000    173.8000    501.8698      0.6500      0.9401      0.9500      0.9500      0.0000      0.5000      0.9000           0
LEG_803         C                  1300.0000      0.0000    173.8000    501.8698      0.6500      0.8067      0.9500      0.9500      0.0000      0.5000      0.9000           0
LEG_1021        A                  1500.0000      0.0000     78.1000    641.6910      0.6500      0.1511      0.9500      0.9500      0.9500      0.9000      0.0100           0
LEG_803         C                  1300.0000      0.0000    173.8000    501.8698      0.7500      0.3331      0.9500      0.9500      0.3000      0.5000      0.2000           0
LEG_1016        C                  1500.0000      0.0000    162.0000    380.8193      0.9500      3.3075      0.9500      0.9500      0.0000      0.0500      0.9000           0
LEG_1076        A                  1500.0000      0.0000    181.5000    597.1724      0.8500      0.4300      0.9500      0.9500      0.9500      0.1000      0.0100           1
LEG_1043        D                  2000.0000      0.0000    168.1000    280.3754      0.9500      0.7105      0.9500      0.9500      0.0000      0.0500      0.9000           0
LEG_1076        A                  1500.0000      0.0000    181.5000    597.1724      0.9500      0.3295      0.9500      0.9500      0.9500      0.9000      0.0100           0
LEG_1016        C                  1500.0000      0.0000    162.0000    380.8193      0.6500      0.6251      0.9500      0.9500      0.3000      0.5000      0.2000           0
LEG_1076        A                  1500.0000      0.0000    181.5000    597.1724      0.8500      0.2034      0.9500      0.9500      0.9500      0.9000      0.0100           0
LEG_1043        D                  2000.0000      0.0000    168.1000    280.3754      0.8500      1.9313      0.9500      0.9500      0.0000      0.0500      0.9000           0
LEG_1016        C                  1500.0000      0.0000    162.0000    380.8193      0.8500      0.8157      0.9500      0.9500      0.0000      0.5000      0.9000           0
LEG_1016        C                  1500.0000      0.0000    162.0000    380.8193      0.8500      0.3256      0.9500      0.9500      0.3000      0.5000      0.2000           0
LEG_1016        C                  1500.0000      0.0000    162.0000    380.8193      0.8500      0.3961      0.9500      0.9500      0.3000      0.5000      0.2000           0
LEG_1076        A                  1500.0000      0.0000    181.5000    597.1724      0.7500      1.5810      0.9500      0.9500      0.3000      0.9000      0.2000           0
LEG_1016        C                  1500.0000      0.0000    162.0000    380.8193      0.7500      0.5030      0.9500      0.9500      0.3000      0.5000      0.2000           0
LEG_1047        A                  1500.0000      0.0000     76.0000    625.8287      0.9500      0.4367      0.9500      0.9500      0.9500      0.9000      0.0100           0
LEG_1077        A                  1500.0000      0.0000     76.7000    640.1804      0.6500      0.2110      0.9500      0.9500      0.9500      0.9000      0.0100           0
LEG_1077        A                  1500.0000      0.0000     76.7000    640.1804      0.6500      0.3023      0.9500      0.9500      0.9500      0.9000      0.0100           0
LEG_1077        A                  1500.0000      0.0000     76.7000    640.1804      0.6500      0.6200      0.9500      0.9500      0.9500      0.9000      0.0100           0
LEG_1076        A                  1500.0000      0.0000    181.5000    597.1724      0.6500      0.2819      0.9500      0.9500      0.9500      0.9000      0.0100           0
LEG_1077        A                  1500.0000      0.0000     76.7000    640.1804      0.8500      0.3021      0.9500      0.9500      0.9500      0.9000      0.0100           0
LEG_1077        A                  1500.0000      0.0000     76.7000    640.1804      0.7500      0.2459      0.9500      0.9500      0.9500      0.9000      0.0100           0
LEG_1031        D                  1300.0000      0.0000     71.0000    550.5582      0.8500      0.1972      0.9500      0.9500      0.9500      0.0500      0.0100           0
LEG_1021        A                  1500.0000      0.0000     78.1000    641.6910      0.7500      0.2694      0.9500      0.9500      0.9500      0.9000      0.0100           0
LEG_1021        A                  1500.0000      0.0000     78.1000    641.6910      0.7500      0.1863      0.9500      0.9500      0.9500      0.9000      0.0100           0
LEG_1016        C                  1500.0000      0.0000    162.0000    380.8193      0.9500      0.2071      0.9500      0.9500      0.3000      0.5000      0.2000           0
LEG_868         D                  1500.0000      0.0000    145.0000    545.7582      0.9500      0.6810      0.9500      0.9500      0.0000      0.0500      0.9000           0
LEG_778         C                  2000.0000      0.0000    227.0000    519.7825      0.9500      0.3995      0.9500      0.9500      0.3000      0.5000      0.2000           0
LEG_778         C                  2000.0000      0.0000    227.0000    519.7825      0.8500      0.2658      0.9500      0.9500      0.3000      0.5000      0.2000           0
LEG_776         D                  1500.0000      0.0000    206.4000    508.8572      0.6500      0.9292      0.9500      0.9500      0.0000      0.0500      0.9000           0
LEG_868         D                  1500.0000      0.0000    145.0000    545.7582      0.9500      0.0747      0.9500      0.9500      0.9500      0.0500      0.0100           0
LEG_870         A                  1300.0000      0.0000     74.8000    546.4135      0.9500      0.2027      0.9500      0.9500      0.9500      0.9000      0.0100           0
LEG_771         D                  1500.0000      0.0000    266.0000    343.5212      0.6500      0.3721      0.9500      0.9500      0.3000      0.0500      0.2000           0
LEG_771         D                  1500.0000      0.0000    266.0000    343.5212      0.7500      0.3054      0.9500      0.9500      0.3000      0.0500      0.2000           0
LEG_771         D                  1500.0000      0.0000    266.0000    343.5212      0.5500      0.3112      0.9500      0.9500      0.3000      0.0500      0.2000           0
LEG_771         D                  1500.0000      0.0000    266.0000    343.5212      0.9500      0.2272      0.9500      0.9500      0.3000      0.0500      0.2000           0
LEG_771         D                  1500.0000      0.0000    266.0000    343.5212      0.7500      0.2310      0.9500      0.9500      0.3000      0.0500      0.2000           0
LEG_771         D                  1500.0000      0.0000    266.0000    343.5212      0.9500      0.2693      0.9500      0.9500      0.3000      0.0500      0.2000           0
LEG_771         D                  1500.0000      0.0000    266.0000    343.5212      0.8500      0.8069      0.9500      0.9500      0.0000      0.0500      0.9000           0
LEG_863         C                  1500.0000      0.0000    260.5000    363.2115      0.7500      1.0300      0.9500      0.9500      0.0000      0.5000      0.9000           0
LEG_771         D                  1500.0000      0.0000    266.0000    343.5212      0.7500      0.1865      0.9500      0.9500      0.9500      0.0500      0.0100           0
LEG_803         C                  1300.0000      0.0000    173.8000    501.8698      0.5500      0.1835      0.9500      0.9500      0.9500      0.5000      0.0100           0
LEG_771         D                  1500.0000      0.0000    266.0000    343.5212      0.9500      0.2128      0.9500      0.9500      0.3000      0.0500      0.2000           0
LEG_803         C                  1300.0000      0.0000    173.8000    501.8698      0.8500      0.2201      0.9500      0.9500      0.3000      0.5000      0.2000           0
LEG_771         D                  1500.0000      0.0000    266.0000    343.5212      0.6500      0.3026      0.9500      0.9500      0.3000      0.0500      0.2000           0
LEG_771         D                  1500.0000      0.0000    266.0000    343.5212      0.9500      0.3661      0.9500      0.9500      0.3000      0.0500      0.2000           0
LEG_1014        B                  1200.0000      0.0000    216.1000    394.1729      0.9500      0.3478      0.9500      0.9500      0.9500      0.9000      0.0100           0
LEG_824         D                  2000.0000      0.0000    334.0000    486.8867      0.9500      0.3940      0.9500      0.9500      0.3000      0.0500      0.2000           0
LEG_778         C                  2000.0000      0.0000    227.0000    519.7825      0.9500      0.7421      0.9500      0.9500      0.0000      0.5000      0.9000           0
LEG_771         D                  1500.0000      0.0000    266.0000    343.5212      0.8500      0.2125      0.9500      0.9500      0.3000      0.0500      0.2000           0
LEG_771         D                  1500.0000      0.0000    266.0000    343.5212      0.8500      0.2270      0.9500      0.9500      0.3000      0.0500      0.2000           0
LEG_868         D                  1500.0000      0.0000    145.0000    545.7582      0.8500      0.1919      0.9500      0.9500      0.9500      0.0500      0.0100           0
LEG_771         D                  1500.0000      0.0000    266.0000    343.5212      0.8500      0.2270      0.9500      0.9500      0.3000      0.0500      0.2000           0
LEG_868         D                  1500.0000      0.0000    145.0000    545.7582      0.8500      0.2684      0.9500      0.9500      0.3000      0.0500      0.2000           0
LEG_771         D                  1500.0000      0.0000    266.0000    343.5212      0.8500      0.2464      0.9500      0.9500      0.3000      0.0500      0.2000           0
LEG_771         D                  1500.0000      0.0000    266.0000    343.5212      0.9500      0.1552      0.9500      0.9500      0.9500      0.0500      0.0100           0
LEG_803         C                  1300.0000      0.0000    173.8000    501.8698      0.6500      0.1949      0.9500      0.9500      0.9500      0.5000      0.0100           0
LEG_803         C                  1300.0000      0.0000    173.8000    501.8698      0.7500      0.2096      0.9500      0.9500      0.3000      0.5000      0.2000           0
LEG_803         C                  1300.0000      0.0000    173.8000    501.8698      0.7500      0.2456      0.9500      0.9500      0.3000      0.5000      0.2000           0
LEG_823         C                  1800.0000      0.0000    305.0000    471.4186      0.5500      0.2104      0.9500      0.9500      0.3000      0.5000      0.2000           0
LEG_823         C                  1800.0000      0.0000    305.0000    471.4186      0.5500      0.2282      0.9500      0.9500      0.3000      0.5000      0.2000           0
LEG_771         D                  1500.0000      0.0000    266.0000    343.5212      0.5500      0.1825      0.9500      0.9500      0.9500      0.0500      0.0100           0
LEG_863         C                  1500.0000      0.0000    260.5000    363.2115      0.6500      0.4471      0.9500      0.9500      0.3000      0.5000      0.2000           0
LEG_803         C                  1300.0000      0.0000    173.8000    501.8698      0.6500      0.3271      0.9500      0.9500      0.3000      0.5000      0.2000           0
LEG_863         C                  1500.0000      0.0000    260.5000    363.2115      0.6500      0.4043      0.9500      0.9500      0.3000      0.5000      0.2000           0
LEG_803         C                  1300.0000      0.0000    173.8000    501.8698      0.6500      0.5772      0.9500      0.9500      0.3000      0.5000      0.2000           0
LEG_803         C                  1300.0000      0.0000    173.8000    501.8698      0.6500      0.4442      0.9500      0.9500      0.3000      0.5000      0.2000           0
LEG_803         C                  1300.0000      0.0000    173.8000    501.8698      0.6500      0.6297      0.9500      0.9500      0.3000      0.5000      0.2000           0
LEG_863         C                  1500.0000      0.0000    260.5000    363.2115      0.6500      0.5309      0.9500      0.9500      0.3000      0.5000      0.2000           0
LEG_863         C                  1500.0000      0.0000    260.5000    363.2115      0.6500      0.4722      0.9500      0.9500      0.3000      0.5000      0.2000           0
LEG_868         D                  1500.0000      0.0000    145.0000    545.7582      0.6500      0.2813      0.9500      0.9500      0.3000      0.0500      0.2000           0
LEG_868         D                  1500.0000      0.0000    145.0000    545.7582      0.6500      0.2849      0.9500      0.9500      0.3000      0.0500      0.2000           0
LEG_803         C                  1300.0000      0.0000    173.8000    501.8698      0.6500      0.3045      0.9500      0.9500      0.3000      0.5000      0.2000           0
LEG_868         D                  1500.0000      0.0000    145.0000    545.7582      0.5500      0.4687      0.9500      0.9500      0.0000      0.0500      0.9000           0
LEG_771         D                  1500.0000      0.0000    266.0000    343.5212      0.5500      0.2712      0.9500      0.9500      0.3000      0.0500      0.2000           0
LEG_803         C                  1300.0000      0.0000    173.8000    501.8698      0.5500      0.5909      0.9500      0.9500      0.3000      0.5000      0.2000           0
LEG_868         D                  1500.0000      0.0000    145.0000    545.7582      0.8500      0.3575      0.9500      0.9500      0.3000      0.0500      0.2000           0
LEG_818         D                  2000.0000      0.0000    331.4000    630.1019      0.8500      1.0136      0.9500      0.9500      0.0000      0.0500      0.9000           0
LEG_868         D                  1500.0000      0.0000    145.0000    545.7582      0.8500      0.6395      0.9500      0.9500      0.0000      0.0500      0.9000           0
LEG_863         C                  1500.0000      0.0000    260.5000    363.2115      0.9500      0.1934      0.9500      0.9500      0.9500      0.5000      0.0100           0
LEG_803         C                  1300.0000      0.0000    173.8000    501.8698      0.8500      0.4944      0.9500      0.9500      0.3000      0.5000      0.2000           0
LEG_823         C                  1800.0000      0.0000    305.0000    471.4186      0.9500      0.1722      0.9500      0.9500      0.9500      0.5000      0.0100           0
LEG_803         C                  1300.0000      0.0000    173.8000    501.8698      0.9500      0.2654      0.9500      0.9500      0.3000      0.5000      0.2000           0
LEG_803         C                  1300.0000      0.0000    173.8000    501.8698      0.9500      0.3055      0.9500      0.9500      0.3000      0.5000      0.2000           0
LEG_776         D                  1500.0000      0.0000    206.4000    508.8572      0.5500      0.9572      0.9500      0.9500      0.0000      0.0500      0.9000           0
LEG_824         D                  2000.0000      0.0000    334.0000    486.8867      0.9500      0.4270      0.9500      0.9500      0.0000      0.0500      0.9000           0
LEG_803         C                  1300.0000      0.0000    173.8000    501.8698      0.9500      0.6132      0.9500      0.9500      0.3000      0.5000      0.2000           0
LEG_803         C                  1300.0000      0.0000    173.8000    501.8698      0.0120      1.1969      0.9500      0.9500      0.0000      0.5000      0.9000           0
LEG_803         C                  1300.0000      0.0000    173.8000    501.8698      0.5500      0.3393      0.9500      0.9500      0.3000      0.5000      0.2000           0
LEG_823         C                  1800.0000      0.0000    305.0000    471.4186      0.5500      0.3279      0.9500      0.9500      0.3000      0.5000      0.2000           0
LEG_863         C                  1500.0000      0.0000    260.5000    363.2115      0.5500      0.4968      0.9500      0.9500      0.3000      0.5000      0.2000           0
LEG_823         C                  1800.0000      0.0000    305.0000    471.4186      0.5500      0.3722      0.9500      0.9500      0.3000      0.5000      0.2000           0
LEG_863         C                  1500.0000      0.0000    260.5000    363.2115      0.5500      0.5500      0.9500      0.9500      0.3000      0.5000      0.2000           0
LEG_863         C                  1500.0000      0.0000    260.5000    363.2115      0.5500      0.5981      0.9500      0.9500      0.3000      0.5000      0.2000           0
LEG_863         C                  1500.0000      0.0000    260.5000    363.2115      0.5500      0.9577      0.9500      0.9500      0.0000      0.5000      0.9000           0
LEG_823         C                  1800.0000      0.0000    305.0000    471.4186      0.5500      0.2972      0.9500      0.9500      0.3000      0.5000      0.2000           0
LEG_823         C                  1800.0000      0.0000    305.0000    471.4186      0.5500      0.3182      0.9500      0.9500      0.3000      0.5000      0.2000           0
LEG_823         C                  1800.0000      0.0000    305.0000    471.4186      0.7500      0.2051      0.9500      0.9500      0.3000      0.5000      0.2000           0
LEG_823         C                  1800.0000      0.0000    305.0000    471.4186      0.7500      0.1591      0.9500      0.9500      0.9500      0.5000      0.0100           0
LEG_823         C                  1800.0000      0.0000    305.0000    471.4186      0.7500      0.3871      0.9500      0.9500      0.3000      0.5000      0.2000           0
LEG_823         C                  1800.0000      0.0000    305.0000    471.4186      0.7500      0.2161      0.9500      0.9500      0.3000      0.5000      0.2000           0
LEG_823         C                  1800.0000      0.0000    305.0000    471.4186      0.7500      0.1788      0.9500      0.9500      0.9500      0.5000      0.0100           0
LEG_823         C                  1800.0000      0.0000    305.0000    471.4186      0.5500      0.1582      0.9500      0.9500      0.9500      0.5000      0.0100           0
LEG_823         C                  1800.0000      0.0000    305.0000    471.4186      0.7500      0.1919      0.9500      0.9500      0.9500      0.5000      0.0100           0
LEG_863         C                  1500.0000      0.0000    260.5000    363.2115      0.7500      1.1304      0.9500      0.9500      0.0000      0.5000      0.9000           0
LEG_803         C                  1300.0000      0.0000    173.8000    501.8698      0.7500      0.3489      0.9500      0.9500      0.3000      0.5000      0.2000           0
LEG_803         C                  1300.0000      0.0000    173.8000    501.8698      0.5500      0.1591      0.9500      0.9500      0.9500      0.5000      0.0100           0
LEG_823         C                  1800.0000      0.0000    305.0000    471.4186      0.5500      0.4740      0.9500      0.9500      0.3000      0.5000      0.2000           0
LEG_863         C                  1500.0000      0.0000    260.5000    363.2115      0.7500      0.9854      0.9500      0.9500      0.0000      0.5000      0.9000           0
LEG_803         C                  1300.0000      0.0000    173.8000    501.8698      0.5500      0.2792      0.9500      0.9500      0.3000      0.5000      0.2000           0
LEG_803         C                  1300.0000      0.0000    173.8000    501.8698      0.5500      0.3617      0.9500      0.9500      0.3000      0.5000      0.2000           0
LEG_803         C                  1300.0000      0.0000    173.8000    501.8698      0.5500      0.4613      0.9500      0.9500      0.3000      0.5000      0.2000           0
LEG_803         C                  1300.0000      0.0000    173.8000    501.8698      0.7500      0.6705      0.9500      0.9500      0.3000      0.5000      0.2000           0
LEG_868         D                  1500.0000      0.0000    145.0000    545.7582      0.7500      0.2374      0.9500      0.9500      0.3000      0.0500      0.2000           0
LEG_789         A                  1500.0000      0.0000    144.5000    573.1991      0.5500      0.9965      0.9500      0.9500      0.3000      0.9000      0.2000           0
LEG_803         C                  1300.0000      0.0000    173.8000    501.8698      0.9500      0.4688      0.9500      0.9500      0.3000      0.5000      0.2000           0
LEG_1069        D                  1300.0000      0.0000    140.4000    227.7452      0.8500      0.3430      0.9500      0.9500      0.3000      0.0500      0.2000           0
LEG_868         D                  1500.0000      0.0000    145.0000    545.7582      0.5500      0.5359      0.9500      0.9500      0.0000      0.0500      0.9000           0
LEG_868         D                  1500.0000      0.0000    145.0000    545.7582      0.5500      0.6213      0.9500      0.9500      0.0000      0.0500      0.9000           0
LEG_1021        A                  1500.0000      0.0000     78.1000    641.6910      0.5500      0.4175      0.9500      0.9500      0.9500      0.9000      0.0100           0
LEG_1021        A                  1500.0000      0.0000     78.1000    641.6910      0.5500      0.2399      0.9500      0.9500      0.9500      0.9000      0.0100           0
LEG_824         D                  2000.0000      0.0000    334.0000    486.8867      0.9500      0.6318      0.9500      0.9500      0.0000      0.0500      0.9000           0
LEG_771         D                  1500.0000      0.0000    266.0000    343.5212      0.9500      0.3554      0.9500      0.9500      0.9500      0.1000      0.0100           1
LEG_863         C                  1500.0000      0.0000    260.5000    363.2115      0.9500      0.4042      0.9500      0.9500      0.9500      0.1000      0.0100           1
LEG_771         D                  1500.0000      0.0000    266.0000    343.5212      0.9500      0.6709      0.9500      0.9500      0.0000      0.0500      0.9000           0
LEG_868         D                  1500.0000      0.0000    145.0000    545.7582      0.9500      0.5094      0.9500      0.9500      0.0000      0.0500      0.9000           0
LEG_771         D                  1500.0000      0.0000    266.0000    343.5212      0.7500      0.3137      0.9500      0.9500      0.9500      0.1000      0.0100           1
LEG_771         D                  1500.0000      0.0000    266.0000    343.5212      0.6500      0.3166      0.9500      0.9500      0.9500      0.1000      0.0100           1
LEG_778         C                  2000.0000      0.0000    227.0000    519.7825      0.9500      0.7784      0.9500      0.9500      0.0000      0.5000      0.9000           0
LEG_771         D                  1500.0000      0.0000    266.0000    343.5212      0.9500      0.9267      0.9500      0.9500      0.0000      0.0500      0.9000           0
LEG_863         C                  1500.0000      0.0000    260.5000    363.2115      0.9500      0.0752      0.9500      0.9500      0.9500      0.5000      0.0100           0
LEG_863         C                  1500.0000      0.0000    260.5000    363.2115      0.8500      0.2071      0.9500      0.9500      0.9500      0.1000      0.0100           1
LEG_771         D                  1500.0000      0.0000    266.0000    343.5212      0.9500      0.2969      0.9500      0.9500      0.3000      0.0500      0.2000           0
LEG_771         D                  1500.0000      0.0000    266.0000    343.5212      0.8500      0.3542      0.9500      0.9500      0.3000      0.0500      0.2000           0
LEG_771         D                  1500.0000      0.0000    266.0000    343.5212      0.8500      0.3922      0.9500      0.9500      0.9500      0.1000      0.0100           1
LEG_1031        D                  1300.0000      0.0000     71.0000    550.5582      0.9500      0.2307      0.9500      0.9500      0.3000      0.0500      0.2000           0
LEG_824         D                  2000.0000      0.0000    334.0000    486.8867      0.6500      1.0309      0.9500      0.9500      0.0000      0.0500      0.9000           0
LEG_805         D                  1300.0000      0.0000    185.0000    420.4605      0.6500      0.6995      0.9500      0.9500      0.0000      0.0500      0.9000           0
LEG_1041        C                  1500.0000      0.0000    185.9000    485.8699      0.7500      0.1575      0.9500      0.9500      0.9500      0.5000      0.0100           0
LEG_1031        D                  1300.0000      0.0000     71.0000    550.5582      0.7500      0.1874      0.9500      0.9500      0.9500      0.0500      0.0100           0
LEG_776         D                  1500.0000      0.0000    206.4000    508.8572      0.7500      0.7341      0.9500      0.9500      0.0000      0.0500      0.9000           0
LEG_776         D                  1500.0000      0.0000    206.4000    508.8572      0.7500      1.2191      0.9500      0.9500      0.0000      0.0500      0.9000           0
LEG_776         D                  1500.0000      0.0000    206.4000    508.8572      0.7500      0.8974      0.9500      0.9500      0.0000      0.0500      0.9000           0
LEG_776         D                  1500.0000      0.0000    206.4000    508.8572      0.6500      0.3924      0.9500      0.9500      0.3000      0.0500      0.2000           0
LEG_803         C                  1300.0000      0.0000    173.8000    501.8698      0.6500      0.9188      0.9500      0.9500      0.0000      0.5000      0.9000           0
LEG_776         D                  1500.0000      0.0000    206.4000    508.8572      0.6500      0.5259      0.9500      0.9500      0.0000      0.0500      0.9000           0
LEG_776         D                  1500.0000      0.0000    206.4000    508.8572      0.6500      0.8839      0.9500      0.9500      0.0000      0.0500      0.9000           0
LEG_803         C                  1300.0000      0.0000    173.8000    501.8698      0.6500      0.5345      0.9500      0.9500      0.3000      0.5000      0.2000           0
LEG_776         D                  1500.0000      0.0000    206.4000    508.8572      0.5500      0.8569      0.9500      0.9500      0.0000      0.0500      0.9000           0
LEG_776         D                  1500.0000      0.0000    206.4000    508.8572      0.5500      0.6569      0.9500      0.9500      0.0000      0.0500      0.9000           0
LEG_776         D                  1500.0000      0.0000    206.4000    508.8572      0.5500      0.6433      0.9500      0.9500      0.0000      0.0500      0.9000           0
LEG_776         D                  1500.0000      0.0000    206.4000    508.8572      0.6500      0.6651      0.9500      0.9500      0.0000      0.0500      0.9000           0
LEG_776         D                  1500.0000      0.0000    206.4000    508.8572      0.6500      1.1722      0.9500      0.9500      0.0000      0.0500      0.9000           0
LEG_776         D                  1500.0000      0.0000    206.4000    508.8572      0.8500      0.3558      0.9500      0.9500      0.3000      0.0500      0.2000           0
LEG_776         D                  1500.0000      0.0000    206.4000    508.8572      0.8500      0.4755      0.9500      0.9500      0.0000      0.0500      0.9000           0
LEG_776         D                  1500.0000      0.0000    206.4000    508.8572      0.6500      0.4067      0.9500      0.9500      0.0000      0.0500      0.9000           0
LEG_776         D                  1500.0000      0.0000    206.4000    508.8572      0.6500      0.6064      0.9500      0.9500      0.0000      0.0500      0.9000           0
LEG_1021        A                  1500.0000      0.0000     78.1000    641.6910      0.6500      0.1577      0.9500      0.9500      0.9500      0.9000      0.0100           0
LEG_803         C                  1300.0000      0.0000    173.8000    501.8698      0.8500      0.4784      0.9500      0.9500      0.3000      0.5000      0.2000           0
LEG_1077        A                  1500.0000      0.0000     76.7000    640.1804      0.6500      0.1763      0.9500      0.9500      0.9500      0.9000      0.0100           0
LEG_803         C                  1300.0000      0.0000    173.8000    501.8698      0.9500      0.5112      0.9500      0.9500      0.3000      0.5000      0.2000           0
LEG_2008        C                  1500.0000      0.0000    270.0000    568.9463      0.5500      0.4871      0.9500      0.9500      0.3000      0.5000      0.2000           0
LEG_818         D                  2000.0000      0.0000    331.4000    630.1019      0.5500      0.6910      0.9500      0.9500      0.0000      0.0500      0.9000           0
LEG_824         D                  2000.0000      0.0000    334.0000    486.8867      0.5500      0.4408      0.9500      0.9500      0.0000      0.0500      0.9000           0
LEG_776         D                  1500.0000      0.0000    206.4000    508.8572      0.9500      1.1292      0.9500      0.9500      0.0000      0.0500      0.9000           0
LEG_776         D                  1500.0000      0.0000    206.4000    508.8572      0.5500      0.6816      0.9500      0.9500      0.0000      0.0500      0.9000           0
LEG_1079        A                  1800.0000      0.0000    113.3000    755.2457      0.8500      0.2035      0.9500      0.9500      0.9500      0.9000      0.0100           0
LEG_1079        A                  1800.0000      0.0000    113.3000    755.2457      0.8500      0.1504      0.9500      0.9500      0.9500      0.9000      0.0100           0
LEG_1079        A                  1800.0000      0.0000    113.3000    755.2457      0.8500      0.1446      0.9500      0.9500      0.9500      0.9000      0.0100           0
LEG_778         C                  2000.0000      0.0000    227.0000    519.7825      0.8500      0.8795      0.9500      0.9500      0.0000      0.5000      0.9000           0
LEG_778         C                  2000.0000      0.0000    227.0000    519.7825      0.8500      0.7104      0.9500      0.9500      0.0000      0.5000      0.9000           0
LEG_880         C                  1500.0000      0.0000    202.0000    412.8636      0.8500      0.6024      0.9500      0.9500      0.3000      0.5000      0.2000           0
LEG_778         C                  2000.0000      0.0000    227.0000    519.7825      0.8500      0.3197      0.9500      0.9500      0.3000      0.5000      0.2000           0
LEG_778         C                  2000.0000      0.0000    227.0000    519.7825      0.8500      0.7604      0.9500      0.9500      0.0000      0.5000      0.9000           0
LEG_776         D                  1500.0000      0.0000    206.4000    508.8572      0.8500      0.3722      0.9500      0.9500      0.3000      0.0500      0.2000           0
LEG_776         D                  1500.0000      0.0000    206.4000    508.8572      0.8500      0.4246      0.9500      0.9500      0.0000      0.0500      0.9000           0
LEG_880         C                  1500.0000      0.0000    202.0000    412.8636      0.8500      0.3059      0.9500      0.9500      0.3000      0.5000      0.2000           0
LEG_880         C                  1500.0000      0.0000    202.0000    412.8636      0.8500      0.2861      0.9500      0.9500      0.3000      0.5000      0.2000           0
LEG_868         D                  1500.0000      0.0000    145.0000    545.7582      0.8500      0.0696      0.9500      0.9500      0.9500      0.0500      0.0100           0
LEG_880         C                  1500.0000      0.0000    202.0000    412.8636      0.8500      0.3676      0.9500      0.9500      0.3000      0.5000      0.2000           0
LEG_880         C                  1500.0000      0.0000    202.0000    412.8636      0.8500      0.2911      0.9500      0.9500      0.3000      0.5000      0.2000           0
LEG_778         C                  2000.0000      0.0000    227.0000    519.7825      0.7500      0.2686      0.9500      0.9500      0.3000      0.5000      0.2000           0
LEG_799         C                  1200.0000      0.0000    169.4000    262.3886      0.9500      0.9897      0.9500      0.9500      0.0000      0.5000      0.9000           0
LEG_1076        A                  1500.0000      0.0000    181.5000    597.1724      0.9500      1.4607      0.9500      0.9500      0.3000      0.9000      0.2000           0
LEG_1076        A                  1500.0000      0.0000    181.5000    597.1724      0.9500      1.2080      0.9500      0.9500      0.3000      0.9000      0.2000           0
LEG_803         C                  1300.0000      0.0000    173.8000    501.8698      0.8500      0.4659      0.9500      0.9500      0.3000      0.5000      0.2000           0
LEG_868         D                  1500.0000      0.0000    145.0000    545.7582      0.9500      0.3076      0.9500      0.9500      0.3000      0.0500      0.2000           0
LEG_880         C                  1500.0000      0.0000    202.0000    412.8636      0.9500      0.2600      0.9500      0.9500      0.3000      0.5000      0.2000           0
LEG_872         C                  1300.0000      0.0000    142.5000    488.4415      0.9500      0.6476      0.9500      0.9500      0.3000      0.5000      0.2000           0
LEG_803         C                  1300.0000      0.0000    173.8000    501.8698      0.8500      0.7430      0.9500      0.9500      0.0000      0.5000      0.9000           0
LEG_880         C                  1500.0000      0.0000    202.0000    412.8636      0.9500      0.1386      0.9500      0.9500      0.9500      0.5000      0.0100           0
LEG_863         C                  1500.0000      0.0000    260.5000    363.2115      0.9500      0.4843      0.9500      0.9500      0.3000      0.5000      0.2000           0
LEG_880         C                  1500.0000      0.0000    202.0000    412.8636      0.9500      0.7871      0.9500      0.9500      0.0000      0.5000      0.9000           0
LEG_863         C                  1500.0000      0.0000    260.5000    363.2115      0.9500      0.5855      0.9500      0.9500      0.3000      0.5000      0.2000           0
LEG_863         C                  1500.0000      0.0000    260.5000    363.2115      0.9500      0.5510      0.9500      0.9500      0.3000      0.5000      0.2000           0
LEG_863         C                  1500.0000      0.0000    260.5000    363.2115      0.9500      0.4966      0.9500      0.9500      0.3000      0.5000      0.2000           0
LEG_863         C                  1500.0000      0.0000    260.5000    363.2115      0.9500      0.8489      0.9500      0.9500      0.0000      0.5000      0.9000           0
LEG_778         C                  2000.0000      0.0000    227.0000    519.7825      0.9500      0.6843      0.9500      0.9500      0.0000      0.5000      0.9000           0
LEG_776         D                  1500.0000      0.0000    206.4000    508.8572      0.8500      1.1541      0.9500      0.9500      0.0000      0.0500      0.9000           0
LEG_863         C                  1500.0000      0.0000    260.5000    363.2115      0.8500      0.3408      0.9500      0.9500      0.3000      0.5000      0.2000           0
LEG_778         C                  2000.0000      0.0000    227.0000    519.7825      0.8500      0.4944      0.9500      0.9500      0.3000      0.5000      0.2000           0
LEG_776         D                  1500.0000      0.0000    206.4000    508.8572      0.8500      0.9158      0.9500      0.9500      0.0000      0.0500      0.9000           0
LEG_880         C                  1500.0000      0.0000    202.0000    412.8636      0.8500      0.4576      0.9500      0.9500      0.3000      0.5000      0.2000           0
LEG_863         C                  1500.0000      0.0000    260.5000    363.2115      0.7500      0.8734      0.9500      0.9500      0.0000      0.5000      0.9000           0
LEG_863         C                  1500.0000      0.0000    260.5000    363.2115      0.7500      0.3164      0.9500      0.9500      0.3000      0.5000      0.2000           0
LEG_818         D                  2000.0000      0.0000    331.4000    630.1019      0.0120      3.4396      0.9500      0.9500      0.0000      0.0500      0.9000           0
LEG_778         C                  2000.0000      0.0000    227.0000    519.7825      0.7500      0.3434      0.9500      0.9500      0.3000      0.5000      0.2000           0
LEG_776         D                  1500.0000      0.0000    206.4000    508.8572      0.7500      0.8167      0.9500      0.9500      0.0000      0.0500      0.9000           0
LEG_863         C                  1500.0000      0.0000    260.5000    363.2115      0.7500      0.4776      0.9500      0.9500      0.3000      0.5000      0.2000           0
LEG_880         C                  1500.0000      0.0000    202.0000    412.8636      0.7500      0.5424      0.9500      0.9500      0.3000      0.5000      0.2000           0
LEG_863         C                  1500.0000      0.0000    260.5000    363.2115      0.7500      0.2595      0.9500      0.9500      0.3000      0.5000      0.2000           0
LEG_818         D                  2000.0000      0.0000    331.4000    630.1019      0.7500      0.2485      0.9500      0.9500      0.3000      0.0500      0.2000           0
LEG_863         C                  1500.0000      0.0000    260.5000    363.2115      0.9500      1.8058      0.9500      0.9500      0.0000      0.5000      0.9000           0
LEG_778         C                  2000.0000      0.0000    227.0000    519.7825      0.9500      0.5988      0.9500      0.9500      0.3000      0.5000      0.2000           0
LEG_824         D                  2000.0000      0.0000    334.0000    486.8867      0.9500      0.3910      0.9500      0.9500      0.3000      0.0500      0.2000           0
LEG_803         C                  1300.0000      0.0000    173.8000    501.8698      0.8500      0.3077      0.9500      0.9500      0.9500      0.1000      0.0100           1
LEG_803         C                  1300.0000      0.0000    173.8000    501.8698      0.8500      0.2726      0.9500      0.9500      0.3000      0.5000      0.2000           0
LEG_803         C                  1300.0000      0.0000    173.8000    501.8698      0.8500      0.2833      0.9500      0.9500      0.3000      0.5000      0.2000           0
LEG_868         D                  1500.0000      0.0000    145.0000    545.7582      0.8500      0.9393      0.9500      0.9500      0.0000      0.0500      0.9000           0
LEG_803         C                  1300.0000      0.0000    173.8000    501.8698      0.9500      0.5875      0.9500      0.9500      0.3000      0.5000      0.2000           0
LEG_776         D                  1500.0000      0.0000    206.4000    508.8572      0.9500      0.8113      0.9500      0.9500      0.0000      0.0500      0.9000           0
LEG_776         D                  1500.0000      0.0000    206.4000    508.8572      0.5500      0.3220      0.9500      0.9500      0.3000      0.0500      0.2000           0
LEG_803         C                  1300.0000      0.0000    173.8000    501.8698      0.9500      0.2094      0.9500      0.9500      0.3000      0.5000      0.2000           0
LEG_776         D                  1500.0000      0.0000    206.4000    508.8572      0.8500      1.0932      0.9500      0.9500      0.0000      0.0500      0.9000           0
LEG_818         D                  2000.0000      0.0000    331.4000    630.1019      0.9500      0.5523      0.9500      0.9500      0.0000      0.0500      0.9000           0
LEG_776         D                  1500.0000      0.0000    206.4000    508.8572      0.7500      0.9084      0.9500      0.9500      0.0000      0.0500      0.9000           0
LEG_803         C                  1300.0000      0.0000    173.8000    501.8698      0.9500      0.1491      0.9500      0.9500      0.9500      0.5000      0.0100           0
LEG_803         C                  1300.0000      0.0000    173.8000    501.8698      0.9500      0.1646      0.9500      0.9500      0.9500      0.5000      0.0100           0
LEG_880         C                  1500.0000      0.0000    202.0000    412.8636      0.9500      0.3003      0.9500      0.9500      0.3000      0.5000      0.2000           0
LEG_863         C                  1500.0000      0.0000    260.5000    363.2115      0.9500      0.3624      0.9500      0.9500      0.3000      0.5000      0.2000           0
LEG_880         C                  1500.0000      0.0000    202.0000    412.8636      0.7500      0.1238      0.9500      0.9500      0.9500      0.5000      0.0100           0
LEG_880         C                  1500.0000      0.0000    202.0000    412.8636      0.5500      0.1606      0.9500      0.9500      0.9500      0.5000      0.0100           0
LEG_803         C                  1300.0000      0.0000    173.8000    501.8698      0.6500      0.1949      0.9500      0.9500      0.9500      0.5000      0.0100           0
LEG_776         D                  1500.0000      0.0000    206.4000    508.8572      0.7500      0.4340      0.9500      0.9500      0.0000      0.0500      0.9000           0
LEG_2008        C                  1500.0000      0.0000    270.0000    568.9463      0.0120      0.5492      0.9500      0.9500      0.3000      0.5000      0.2000           0
LEG_776         D                  1500.0000      0.0000    206.4000    508.8572      0.7500      0.3255      0.9500      0.9500      0.3000      0.0500      0.2000           0
LEG_823         C                  1800.0000      0.0000    305.0000    471.4186      0.7500      0.4091      0.9500      0.9500      0.3000      0.5000      0.2000           0
LEG_823         C                  1800.0000      0.0000    305.0000    471.4186      0.7500      0.2491      0.9500      0.9500      0.3000      0.5000      0.2000           0
LEG_823         C                  1800.0000      0.0000    305.0000    471.4186      0.7500      0.3414      0.9500      0.9500      0.3000      0.5000      0.2000           0
LEG_823         C                  1800.0000      0.0000    305.0000    471.4186      0.7500      0.3057      0.9500      0.9500      0.3000      0.5000      0.2000           0
LEG_823         C                  1800.0000      0.0000    305.0000    471.4186      0.8500      0.2822      0.9500      0.9500      0.3000      0.5000      0.2000           0
LEG_823         C                  1800.0000      0.0000    305.0000    471.4186      0.8500      0.1658      0.9500      0.9500      0.9500      0.5000      0.0100           0
LEG_823         C                  1800.0000      0.0000    305.0000    471.4186      0.8500      0.2166      0.9500      0.9500      0.3000      0.5000      0.2000           0
LEG_823         C                  1800.0000      0.0000    305.0000    471.4186      0.8500      0.1909      0.9500      0.9500      0.9500      0.5000      0.0100           0
LEG_803         C                  1300.0000      0.0000    173.8000    501.8698      0.8500      0.4293      0.9500      0.9500      0.3000      0.5000      0.2000           0
LEG_823         C                  1800.0000      0.0000    305.0000    471.4186      0.8500      0.3471      0.9500      0.9500      0.3000      0.5000      0.2000           0
LEG_863         C                  1500.0000      0.0000    260.5000    363.2115      0.8500      0.6125      0.9500      0.9500      0.3000      0.5000      0.2000           0
LEG_863         C                  1500.0000      0.0000    260.5000    363.2115      0.8500      0.1918      0.9500      0.9500      0.9500      0.5000      0.0100           0
LEG_803         C                  1300.0000      0.0000    173.8000    501.8698      0.7500      0.4313      0.9500      0.9500      0.3000      0.5000      0.2000           0
LEG_776         D                  1500.0000      0.0000    206.4000    508.8572      0.9500      0.3328      0.9500      0.9500      0.3000      0.0500      0.2000           0
LEG_863         C                  1500.0000      0.0000    260.5000    363.2115      0.9500      0.8144      0.9500      0.9500      0.0000      0.5000      0.9000           0
LEG_776         D                  1500.0000      0.0000    206.4000    508.8572      0.9500      0.5486      0.9500      0.9500      0.0000      0.0500      0.9000           0
LEG_789         A                  1500.0000      0.0000    144.5000    573.1991      0.9500      0.5314      0.9500      0.9500      0.9500      0.9000      0.0100           0
LEG_1077        A                  1500.0000      0.0000     76.7000    640.1804      0.9500      0.1903      0.9500      0.9500      0.9500      0.9000      0.0100           0
LEG_1076        A                  1500.0000      0.0000    181.5000    597.1724      0.8500      0.4915      0.9500      0.9500      0.9500      0.9000      0.0100           0
LEG_818         D                  2000.0000      0.0000    331.4000    630.1019      0.8500      0.3776      0.9500      0.9500      0.3000      0.0500      0.2000           0
LEG_1021        A                  1500.0000      0.0000     78.1000    641.6910      0.8500      0.2006      0.9500      0.9500      0.9500      0.9000      0.0100           0
LEG_1080        A                  1800.0000      0.0000    203.0000    643.9475      0.8500      0.2619      0.9500      0.9500      0.9500      0.9000      0.0100           0
LEG_1080        A                  1800.0000      0.0000    203.0000    643.9475      0.8500      0.1891      0.9500      0.9500      0.9500      0.9000      0.0100           0
LEG_1021        A                  1500.0000      0.0000     78.1000    641.6910      0.8500      0.1320      0.9500      0.9500      0.9500      0.9000      0.0100           0
LEG_776         D                  1500.0000      0.0000    206.4000    508.8572      0.8500      0.4317      0.9500      0.9500      0.0000      0.0500      0.9000           0
LEG_868         D                  1500.0000      0.0000    145.0000    545.7582      0.8500      0.7324      0.9500      0.9500      0.0000      0.0500      0.9000           0
LEG_880         C                  1500.0000      0.0000    202.0000    412.8636      0.8500      0.5785      0.9500      0.9500      0.3000      0.5000      0.2000           0
LEG_868         D                  1500.0000      0.0000    145.0000    545.7582      0.8500      0.4610      0.9500      0.9500      0.0000      0.0500      0.9000           0
LEG_1076        A                  1500.0000      0.0000    181.5000    597.1724      0.6500      0.3265      0.9500      0.9500      0.9500      0.9000      0.0100           0
LEG_1017        C                  1300.0000      0.0000    224.0000    450.9240      0.6500      0.5485      0.9500      0.9500      0.3000      0.5000      0.2000           0
LEG_1068        A                  1500.0000      0.0000    155.0000    602.5350      0.6500      0.6244      0.9500      0.9500      0.9500      0.9000      0.0100           0
LEG_1021        A                  1500.0000      0.0000     78.1000    641.6910      0.6500      0.2064      0.9500      0.9500      0.9500      0.9000      0.0100           0
LEG_1077        A                  1500.0000      0.0000     76.7000    640.1804      0.9500      0.2567      0.9500      0.9500      0.9500      0.9000      0.0100           0
LEG_1077        A                  1500.0000      0.0000     76.7000    640.1804      0.0120      0.2961      0.9500      0.9500      0.9500      0.9000      0.0100           0
LEG_1014        B                  1200.0000      0.0000    216.1000    394.1729      0.9500      0.3181      0.9500      0.9500      0.9500      0.9000      0.0100           0
LEG_868         D                  1500.0000      0.0000    145.0000    545.7582      0.9500      0.3840      0.9500      0.9500      0.3000      0.0500      0.2000           0
LEG_776         D                  1500.0000      0.0000    206.4000    508.8572      0.9500      0.5289      0.9500      0.9500      0.0000      0.0500      0.9000           0
LEG_870         A                  1300.0000      0.0000     74.8000    546.4135      0.7500      0.5855      0.9500      0.9500      0.9500      0.9000      0.0100           0
LEG_870         A                  1300.0000      0.0000     74.8000    546.4135      0.7500      0.4830      0.9500      0.9500      0.9500      0.9000      0.0100           0
LEG_776         D                  1500.0000      0.0000    206.4000    508.8572      0.7500      0.3580      0.9500      0.9500      0.3000      0.0500      0.2000           0
LEG_880         C                  1500.0000      0.0000    202.0000    412.8636      0.5500      0.7887      0.9500      0.9500      0.0000      0.5000      0.9000           0
LEG_803         C                  1300.0000      0.0000    173.8000    501.8698      0.5500      0.5154      0.9500      0.9500      0.3000      0.5000      0.2000           0
LEG_803         C                  1300.0000      0.0000    173.8000    501.8698      0.5500      0.5302      0.9500      0.9500      0.3000      0.5000      0.2000           0
LEG_870         A                  1300.0000      0.0000     74.8000    546.4135      0.8500      0.3838      0.9500      0.9500      0.9500      0.9000      0.0100           0
LEG_1050        B                  1500.0000      0.0000    148.0000    576.8870      0.9500      0.2433      0.9500      0.9500      0.9500      0.9000      0.0100           0
LEG_868         D                  1500.0000      0.0000    145.0000    545.7582      0.9500      0.5295      0.9500      0.9500      0.0000      0.0500      0.9000           0
LEG_776         D                  1500.0000      0.0000    206.4000    508.8572      0.9500      1.1346      0.9500      0.9500      0.0000      0.0500      0.9000           0
LEG_776         D                  1500.0000      0.0000    206.4000    508.8572      0.9500      0.6002      0.9500      0.9500      0.0000      0.0500      0.9000           0
LEG_776         D                  1500.0000      0.0000    206.4000    508.8572      0.9500      0.3510      0.9500      0.9500      0.3000      0.0500      0.2000           0
LEG_880         C                  1500.0000      0.0000    202.0000    412.8636      0.5500      0.2394      0.9500      0.9500      0.3000      0.5000      0.2000           0
LEG_776         D                  1500.0000      0.0000    206.4000    508.8572      0.6500      0.4464      0.9500      0.9500      0.0000      0.0500      0.9000           0
LEG_1076        A                  1500.0000      0.0000    181.5000    597.1724      0.5500      1.0280      0.9500      0.9500      0.3000      0.9000      0.2000           0
LEG_820         A                  1500.0000      0.0000    196.0000    585.3755      0.6500      0.1422      0.9500      0.9500      0.9500      0.9000      0.0100           0
LEG_820         A                  1500.0000      0.0000    196.0000    585.3755      0.7500      0.1546      0.9500      0.9500      0.9500      0.9000      0.0100           0
LEG_1031        D                  1300.0000      0.0000     71.0000    550.5582      0.7500      0.1512      0.9500      0.9500      0.9500      0.0500      0.0100           0
LEG_868         D                  1500.0000      0.0000    145.0000    545.7582      0.7500      0.3488      0.9500      0.9500      0.3000      0.0500      0.2000           0
LEG_803         C                  1300.0000      0.0000    173.8000    501.8698      0.7500      0.4957      0.9500      0.9500      0.3000      0.5000      0.2000           0
LEG_803         C                  1300.0000      0.0000    173.8000    501.8698      0.7500      0.5257      0.9500      0.9500      0.3000      0.5000      0.2000           0
LEG_776         D                  1500.0000      0.0000    206.4000    508.8572      0.7500      0.4888      0.9500      0.9500      0.0000      0.0500      0.9000           0
LEG_776         D                  1500.0000      0.0000    206.4000    508.8572      0.7500      0.7484      0.9500      0.9500      0.0000      0.0500      0.9000           0
LEG_822         A                  1300.0000      0.0000    117.5000    491.2663      0.7500      0.3985      0.9500      0.9500      0.9500      0.9000      0.0100           0
LEG_776         D                  1500.0000      0.0000    206.4000    508.8572      0.9500      0.5669      0.9500      0.9500      0.0000      0.0500      0.9000           0
LEG_1021        A                  1500.0000      0.0000     78.1000    641.6910      0.9500      0.1283      0.9500      0.9500      0.9500      0.9000      0.0100           0
LEG_776         D                  1500.0000      0.0000    206.4000    508.8572      0.9500      0.9300      0.9500      0.9500      0.0000      0.0500      0.9000           0
LEG_824         D                  2000.0000      0.0000    334.0000    486.8867      0.9500      0.6473      0.9500      0.9500      0.0000      0.0500      0.9000           0
LEG_776         D                  1500.0000      0.0000    206.4000    508.8572      0.9500      1.7728      0.9500      0.9500      0.0000      0.0500      0.9000           0
LEG_776         D                  1500.0000      0.0000    206.4000    508.8572      0.9500      2.5360      0.9500      0.9500      0.0000      0.0500      0.9000           0
LEG_778         C                  2000.0000      0.0000    227.0000    519.7825      0.9500      0.6236      0.9500      0.9500      0.3000      0.5000      0.2000           0
LEG_776         D                  1500.0000      0.0000    206.4000    508.8572      0.9500      1.7709      0.9500      0.9500      0.0000      0.0500      0.9000           0
LEG_778         C                  2000.0000      0.0000    227.0000    519.7825      0.9500      0.7254      0.9500      0.9500      0.0000      0.5000      0.9000           0
LEG_863         C                  1500.0000      0.0000    260.5000    363.2115      0.7500      0.3357      0.9500      0.9500      0.3000      0.5000      0.2000           0
LEG_803         C                  1300.0000      0.0000    173.8000    501.8698      0.7500      0.6059      0.9500      0.9500      0.3000      0.5000      0.2000           0
LEG_803         C                  1300.0000      0.0000    173.8000    501.8698      0.9500      0.3776      0.9500      0.9500      0.3000      0.5000      0.2000           0
LEG_776         D                  1500.0000      0.0000    206.4000    508.8572      0.7500      0.5903      0.9500      0.9500      0.0000      0.0500      0.9000           0
LEG_776         D                  1500.0000      0.0000    206.4000    508.8572      0.7500      0.5615      0.9500      0.9500      0.0000      0.0500      0.9000           0
LEG_2008        C                  1500.0000      0.0000    270.0000    568.9463      0.0120      0.4628      0.9500      0.9500      0.3000      0.5000      0.2000           0
LEG_820         A                  1500.0000      0.0000    196.0000    585.3755      0.0120      3.2545      0.9500      0.9500      0.0000      0.9000      0.9000           0
LEG_1014        B                  1200.0000      0.0000    216.1000    394.1729      0.9500      0.4948      0.9500      0.9500      0.3000      0.9000      0.2000           0
LEG_1069        D                  1300.0000      0.0000    140.4000    227.7452      0.9500      0.7545      0.9500      0.9500      0.0000      0.0500      0.9000           0
LEG_1069        D                  1300.0000      0.0000    140.4000    227.7452      0.9500      0.2617      0.9500      0.9500      0.3000      0.0500      0.2000           0
LEG_1079        A                  1800.0000      0.0000    113.3000    755.2457      0.8500      0.6574      0.9500      0.9500      0.9500      0.9000      0.0100           0
LEG_1079        A                  1800.0000      0.0000    113.3000    755.2457      0.8500      0.3087      0.9500      0.9500      0.9500      0.9000      0.0100           0
LEG_1069        D                  1300.0000      0.0000    140.4000    227.7452      0.7500      0.4242      0.9500      0.9500      0.0000      0.0500      0.9000           0
LEG_1031        D                  1300.0000      0.0000     71.0000    550.5582      0.7500      0.2114      0.9500      0.9500      0.3000      0.0500      0.2000           0
LEG_818         D                  2000.0000      0.0000    331.4000    630.1019      0.9500      0.9556      0.9500      0.9500      0.0000      0.0500      0.9000           0
LEG_803         C                  1300.0000      0.0000    173.8000    501.8698      0.9500      0.7266      0.9500      0.9500      0.0000      0.5000      0.9000           0
LEG_805         D                  1300.0000      0.0000    185.0000    420.4605      0.9500      0.6820      0.9500      0.9500      0.0000      0.0500      0.9000           0
LEG_880         C                  1500.0000      0.0000    202.0000    412.8636      0.6500      1.0488      0.9500      0.9500      0.0000      0.5000      0.9000           0
LEG_776         D                  1500.0000      0.0000    206.4000    508.8572      0.6500      0.6566      0.9500      0.9500      0.0000      0.0500      0.9000           0
LEG_1060        A                  1500.0000      0.0000     87.5000    631.5907      0.6500      0.1775      0.9500      0.9500      0.9500      0.9000      0.0100           0
LEG_778         C                  2000.0000      0.0000    227.0000    519.7825      0.7500      0.6461      0.9500      0.9500      0.3000      0.5000      0.2000           0
LEG_863         C                  1500.0000      0.0000    260.5000    363.2115      0.7500      1.4055      0.9500      0.9500      0.0000      0.5000      0.9000           0
LEG_824         D                  2000.0000      0.0000    334.0000    486.8867      0.7500      0.4707      0.9500      0.9500      0.0000      0.0500      0.9000           0
LEG_803         C                  1300.0000      0.0000    173.8000    501.8698      0.6500      0.7261      0.9500      0.9500      0.0000      0.5000      0.9000           0
LEG_824         D                  2000.0000      0.0000    334.0000    486.8867      0.9500      0.6554      0.9500      0.9500      0.0000      0.0500      0.9000           0
LEG_805         D                  1300.0000      0.0000    185.0000    420.4605      0.7500      1.1126      0.9500      0.9500      0.0000      0.0500      0.9000           0
LEG_824         D                  2000.0000      0.0000    334.0000    486.8867      0.9500      0.3985      0.9500      0.9500      0.3000      0.0500      0.2000           0
LEG_776         D                  1500.0000      0.0000    206.4000    508.8572      0.9500      0.9833      0.9500      0.9500      0.0000      0.0500      0.9000           0
LEG_776         D                  1500.0000      0.0000    206.4000    508.8572      0.9500      1.0118      0.9500      0.9500      0.0000      0.0500      0.9000           0
LEG_805         D                  1300.0000      0.0000    185.0000    420.4605      0.5500      1.3173      0.9500      0.9500      0.0000      0.0500      0.9000           0
LEG_872         C                  1300.0000      0.0000    142.5000    488.4415      0.0120      1.5958      0.9500      0.9500      0.0000      0.5000      0.9000           0
LEG_1076        A                  1500.0000      0.0000    181.5000    597.1724      0.8500      0.5326      0.9500      0.9500      0.9500      0.9000      0.0100           0
LEG_880         C                  1500.0000      0.0000    202.0000    412.8636      0.7500      1.2216      0.9500      0.9500      0.0000      0.5000      0.9000           0
LEG_805         D                  1300.0000      0.0000    185.0000    420.4605      0.9500      0.5418      0.9500      0.9500      0.0000      0.0500      0.9000           0
LEG_1076        A                  1500.0000      0.0000    181.5000    597.1724      0.9500      0.5715      0.9500      0.9500      0.9500      0.9000      0.0100           0
LEG_880         C                  1500.0000      0.0000    202.0000    412.8636      0.9500      0.3211      0.9500      0.9500      0.3000      0.5000      0.2000           0
LEG_880         C                  1500.0000      0.0000    202.0000    412.8636      0.9500      0.2404      0.9500      0.9500      0.3000      0.5000      0.2000           0
LEG_880         C                  1500.0000      0.0000    202.0000    412.8636      0.9500      0.1727      0.9500      0.9500      0.9500      0.5000      0.0100           0
LEG_880         C                  1500.0000      0.0000    202.0000    412.8636      0.5500      0.2621      0.9500      0.9500      0.3000      0.5000      0.2000           0
LEG_824         D                  2000.0000      0.0000    334.0000    486.8867      0.9500      0.3552      0.9500      0.9500      0.3000      0.0500      0.2000           0
LEG_803         C                  1300.0000      0.0000    173.8000    501.8698      0.7500      0.3276      0.9500      0.9500      0.3000      0.5000      0.2000           0
LEG_863         C                  1500.0000      0.0000    260.5000    363.2115      0.7500      0.2074      0.9500      0.9500      0.3000      0.5000      0.2000           0
LEG_823         C                  1800.0000      0.0000    305.0000    471.4186      0.7500      0.2392      0.9500      0.9500      0.3000      0.5000      0.2000           0
LEG_1080        A                  1800.0000      0.0000    203.0000    643.9475      0.6500      0.2292      0.9500      0.9500      0.9500      0.9000      0.0100           0
LEG_1080        A                  1800.0000      0.0000    203.0000    643.9475      0.6500      0.1197      0.9500      0.9500      0.9500      0.9000      0.0100           0
LEG_1080        A                  1800.0000      0.0000    203.0000    643.9475      0.7500      0.1080      0.9500      0.9500      0.9500      0.9000      0.0100           0
LEG_1080        A                  1800.0000      0.0000    203.0000    643.9475      0.6500      0.5682      0.9500      0.9500      0.9500      0.9000      0.0100           0
LEG_1080        A                  1800.0000      0.0000    203.0000    643.9475      0.7500      0.1095      0.9500      0.9500      0.9500      0.9000      0.0100           0
LEG_1080        A                  1800.0000      0.0000    203.0000    643.9475      0.7500      0.8439      0.9500      0.9500      0.3000      0.9000      0.2000           0
LEG_1080        A                  1800.0000      0.0000    203.0000    643.9475      0.9500      0.1546      0.9500      0.9500      0.9500      0.9000      0.0100           0
LEG_803         C                  1300.0000      0.0000    173.8000    501.8698      0.6500      0.7634      0.9500      0.9500      0.0000      0.5000      0.9000           0
LEG_776         D                  1500.0000      0.0000    206.4000    508.8572      0.9500      0.6207      0.9500      0.9500      0.0000      0.0500      0.9000           0
LEG_803         C                  1300.0000      0.0000    173.8000    501.8698      0.7500      0.4963      0.9500      0.9500      0.3000      0.5000      0.2000           0
LEG_1031        D                  1300.0000      0.0000     71.0000    550.5582      0.7500      0.2630      0.9500      0.9500      0.3000      0.0500      0.2000           0
LEG_776         D                  1500.0000      0.0000    206.4000    508.8572      0.9500      0.5627      0.9500      0.9500      0.0000      0.0500      0.9000           0
LEG_1031        D                  1300.0000      0.0000     71.0000    550.5582      0.7500      0.2771      0.9500      0.9500      0.3000      0.0500      0.2000           0
LEG_880         C                  1500.0000      0.0000    202.0000    412.8636      0.8500      0.0974      0.9500      0.9500      0.9500      0.5000      0.0100           0
LEG_771         D                  1500.0000      0.0000    266.0000    343.5212      0.7500      0.2359      0.9500      0.9500      0.3000      0.0500      0.2000           0
LEG_771         D                  1500.0000      0.0000    266.0000    343.5212      0.7500      0.3376      0.9500      0.9500      0.3000      0.0500      0.2000           0
LEG_803         C                  1300.0000      0.0000    173.8000    501.8698      0.7500      0.7433      0.9500      0.9500      0.0000      0.5000      0.9000           0
LEG_1014        B                  1200.0000      0.0000    216.1000    394.1729      0.6500      1.0220      0.9500      0.9500      0.0000      0.5000      0.9000           0
LEG_1075        A                  1500.0000      0.0000    179.6000    534.5723      0.7500      0.5770      0.9500      0.9500      0.9500      0.9000      0.0100           0
LEG_1014        B                  1200.0000      0.0000    216.1000    394.1729      0.8500      0.7547      0.9500      0.9500      0.0000      0.5000      0.9000           0
LEG_1041        C                  1500.0000      0.0000    185.9000    485.8699      0.9500      1.1171      0.9500      0.9500      0.0000      0.5000      0.9000           0
LEG_803         C                  1300.0000      0.0000    173.8000    501.8698      0.9500      0.6271      0.9500      0.9500      0.3000      0.5000      0.2000           0
LEG_803         C                  1300.0000      0.0000    173.8000    501.8698      0.7500      0.2611      0.9500      0.9500      0.3000      0.5000      0.2000           0
LEG_803         C                  1300.0000      0.0000    173.8000    501.8698      0.7500      0.7056      0.9500      0.9500      0.0000      0.5000      0.9000           0
LEG_803         C                  1300.0000      0.0000    173.8000    501.8698      0.7500      0.7739      0.9500      0.9500      0.0000      0.5000      0.9000           0
LEG_803         C                  1300.0000      0.0000    173.8000    501.8698      0.7500      0.3805      0.9500      0.9500      0.3000      0.5000      0.2000           0
LEG_803         C                  1300.0000      0.0000    173.8000    501.8698      0.7500      0.5855      0.9500      0.9500      0.3000      0.5000      0.2000           0
LEG_776         D                  1500.0000      0.0000    206.4000    508.8572      0.7500      0.6544      0.9500      0.9500      0.0000      0.0500      0.9000           0
LEG_1021        A                  1500.0000      0.0000     78.1000    641.6910      0.7500      0.1653      0.9500      0.9500      0.9500      0.9000      0.0100           0
LEG_1075        A                  1500.0000      0.0000    179.6000    534.5723      0.7500      0.6637      0.9500      0.9500      0.9500      0.9000      0.0100           0
LEG_1075        A                  1500.0000      0.0000    179.6000    534.5723      0.7500      0.7056      0.9500      0.9500      0.3000      0.9000      0.2000           0
LEG_1075        A                  1500.0000      0.0000    179.6000    534.5723      0.7500      0.4230      0.9500      0.9500      0.9500      0.9000      0.0100           0
LEG_1014        B                  1200.0000      0.0000    216.1000    394.1729      0.7500      0.5467      0.9500      0.9500      0.3000      0.9000      0.2000           0
LEG_1014        B                  1200.0000      0.0000    216.1000    394.1729      0.9500      0.5055      0.9500      0.9500      0.3000      0.9000      0.2000           0
LEG_1014        B                  1200.0000      0.0000    216.1000    394.1729      0.9500      0.2789      0.9500      0.9500      0.9500      0.9000      0.0100           0
LEG_824         D                  2000.0000      0.0000    334.0000    486.8867      0.9500      0.6697      0.9500      0.9500      0.0000      0.0500      0.9000           0
LEG_824         D                  2000.0000      0.0000    334.0000    486.8867      0.7500      0.6600      0.9500      0.9500      0.0000      0.0500      0.9000           0
LEG_824         D                  2000.0000      0.0000    334.0000    486.8867      0.9500      0.5501      0.9500      0.9500      0.0000      0.0500      0.9000           0
LEG_824         D                  2000.0000      0.0000    334.0000    486.8867      0.9500      0.7477      0.9500      0.9500      0.0000      0.0500      0.9000           0
LEG_824         D                  2000.0000      0.0000    334.0000    486.8867      0.9500      0.7076      0.9500      0.9500      0.0000      0.0500      0.9000           0
LEG_1014        B                  1200.0000      0.0000    216.1000    394.1729      0.8500      1.1063      0.9500      0.9500      0.0000      0.5000      0.9000           0
LEG_880         C                  1500.0000      0.0000    202.0000    412.8636      0.9500      0.2125      0.9500      0.9500      0.3000      0.5000      0.2000           0
LEG_789         A                  1500.0000      0.0000    144.5000    573.1991      0.7500      0.4684      0.9500      0.9500      0.9500      0.9000      0.0100           0
LEG_1077        A                  1500.0000      0.0000     76.7000    640.1804      0.7500      0.3255      0.9500      0.9500      0.9500      0.9000      0.0100           0
LEG_824         D                  2000.0000      0.0000    334.0000    486.8867      0.7500      0.6184      0.9500      0.9500      0.0000      0.0500      0.9000           0
LEG_776         D                  1500.0000      0.0000    206.4000    508.8572      0.7500      0.5609      0.9500      0.9500      0.0000      0.0500      0.9000           0
LEG_868         D                  1500.0000      0.0000    145.0000    545.7582      0.7500      0.3411      0.9500      0.9500      0.3000      0.0500      0.2000           0
LEG_803         C                  1300.0000      0.0000    173.8000    501.8698      0.7500      0.1501      0.9500      0.9500      0.9500      0.5000      0.0100           0
LEG_803         C                  1300.0000      0.0000    173.8000    501.8698      0.8500      0.1972      0.9500      0.9500      0.9500      0.5000      0.0100           0
LEG_776         D                  1500.0000      0.0000    206.4000    508.8572      0.8500      1.0975      0.9500      0.9500      0.0000      0.0500      0.9000           0
LEG_803         C                  1300.0000      0.0000    173.8000    501.8698      0.8500      0.1647      0.9500      0.9500      0.9500      0.5000      0.0100           0
LEG_803         C                  1300.0000      0.0000    173.8000    501.8698      0.8500      0.1409      0.9500      0.9500      0.9500      0.5000      0.0100           0
LEG_803         C                  1300.0000      0.0000    173.8000    501.8698      0.8500      0.1163      0.9500      0.9500      0.9500      0.5000      0.0100           0
LEG_803         C                  1300.0000      0.0000    173.8000    501.8698      0.7500      0.1540      0.9500      0.9500      0.9500      0.5000      0.0100           0
LEG_803         C                  1300.0000      0.0000    173.8000    501.8698      0.7500      0.1709      0.9500      0.9500      0.9500      0.5000      0.0100           0
LEG_803         C                  1300.0000      0.0000    173.8000    501.8698      0.8500      0.1721      0.9500      0.9500      0.9500      0.5000      0.0100           0
LEG_803         C                  1300.0000      0.0000    173.8000    501.8698      0.7500      0.2739      0.9500      0.9500      0.3000      0.5000      0.2000           0
LEG_823         C                  1800.0000      0.0000    305.0000    471.4186      0.7500      0.4035      0.9500      0.9500      0.3000      0.5000      0.2000           0
LEG_824         D                  2000.0000      0.0000    334.0000    486.8867      0.7500      0.3362      0.9500      0.9500      0.3000      0.0500      0.2000           0
LEG_1021        A                  1500.0000      0.0000     78.1000    641.6910      0.7500      0.1572      0.9500      0.9500      0.9500      0.9000      0.0100           0
LEG_1021        A                  1500.0000      0.0000     78.1000    641.6910      0.5500      0.1573      0.9500      0.9500      0.9500      0.9000      0.0100           0
LEG_1021        A                  1500.0000      0.0000     78.1000    641.6910      0.5500      0.1559      0.9500      0.9500      0.9500      0.9000      0.0100           0
LEG_1068        A                  1500.0000      0.0000    155.0000    602.5350      0.5500      0.1629      0.9500      0.9500      0.9500      0.9000      0.0100           0
LEG_880         C                  1500.0000      0.0000    202.0000    412.8636      0.6500      0.4285      0.9500      0.9500      0.3000      0.5000      0.2000           0
LEG_880         C                  1500.0000      0.0000    202.0000    412.8636      0.9500      0.3059      0.9500      0.9500      0.3000      0.5000      0.2000           0
LEG_880         C                  1500.0000      0.0000    202.0000    412.8636      0.9500      0.2566      0.9500      0.9500      0.3000      0.5000      0.2000           0
LEG_789         A                  1500.0000      0.0000    144.5000    573.1991      0.9500      0.4745      0.9500      0.9500      0.9500      0.9000      0.0100           0
LEG_776         D                  1500.0000      0.0000    206.4000    508.8572      0.9500      0.4893      0.9500      0.9500      0.0000      0.0500      0.9000           0
LEG_776         D                  1500.0000      0.0000    206.4000    508.8572      0.9500      0.7547      0.9500      0.9500      0.0000      0.0500      0.9000           0
LEG_778         C                  2000.0000      0.0000    227.0000    519.7825      0.5500      0.8351      0.9500      0.9500      0.0000      0.5000      0.9000           0
LEG_824         D                  2000.0000      0.0000    334.0000    486.8867      0.5500      0.9201      0.9500      0.9500      0.0000      0.0500      0.9000           0
LEG_778         C                  2000.0000      0.0000    227.0000    519.7825      0.5500      1.0878      0.9500      0.9500      0.0000      0.5000      0.9000           0
LEG_1077        A                  1500.0000      0.0000     76.7000    640.1804      0.6500      0.6423      0.9500      0.9500      0.9500      0.9000      0.0100           0
LEG_868         D                  1500.0000      0.0000    145.0000    545.7582      0.6500      0.8831      0.9500      0.9500      0.0000      0.0500      0.9000           0
LEG_776         D                  1500.0000      0.0000    206.4000    508.8572      0.6500      1.1171      0.9500      0.9500      0.0000      0.0500      0.9000           0
LEG_776         D                  1500.0000      0.0000    206.4000    508.8572      0.6500      0.8809      0.9500      0.9500      0.0000      0.0500      0.9000           0
LEG_776         D                  1500.0000      0.0000    206.4000    508.8572      0.7500      1.1182      0.9500      0.9500      0.0000      0.0500      0.9000           0
LEG_1021        A                  1500.0000      0.0000     78.1000    641.6910      0.6500      0.5259      0.9500      0.9500      0.9500      0.9000      0.0100           0
[...]
LEG_1031        D                  1300.0000      0.0000     71.0000    550.5582      0.0120      0.3480      0.9500      0.9500      0.3000      0.0500      0.2000           0
LEG_1031        D                  1300.0000      0.0000     71.0000    550.5582      0.0120      0.2156      0.9500      0.9500      0.3000      0.0500      0.2000           0
LEG_1014        B                  1200.0000      0.0000    216.1000    394.1729      0.6500      0.9414      0.9500      0.9500      0.0000      0.5000      0.9000           0
LEG_1017        C                  1300.0000      0.0000    224.0000    450.9240      0.6500      1.3304      0.9500      0.9500      0.0000      0.5000      0.9000           0
LEG_805         D                  1300.0000      0.0000    185.0000    420.4605      1.0000      0.8714      0.9500      0.9500      0.0000      0.0500      0.9000           0
LEG_868         D                  1500.0000      0.0000    145.0000    545.7582      0.0120      0.7319      0.9500      0.9500      0.0000      0.0500      0.9000           0
LEG_868         D                  1500.0000      0.0000    145.0000    545.7582      0.0120      0.9461      0.9500      0.9500      0.0000      0.0500      0.9000           0
LEG_868         D                  1500.0000      0.0000    145.0000    545.7582      0.0120      0.2927      0.9500      0.9500      0.3000      0.0500      0.2000           0
LEG_805         D                  1300.0000      0.0000    185.0000    420.4605      0.0120      0.6994      0.9500      0.9500      0.0000      0.0500      0.9000           0
LEG_805         D                  1300.0000      0.0000    185.0000    420.4605      0.0120      0.6229      0.9500      0.9500      0.0000      0.0500      0.9000           0
LEG_805         D                  1300.0000      0.0000    185.0000    420.4605      0.0120      2.3825      0.9500      0.9500      0.0000      0.0500      0.9000           0
LEG_1041        C                  1500.0000      0.0000    185.9000    485.8699      0.0120      0.1087      0.9500      0.9500      0.9500      0.5000      0.0100           0
LEG_1041        C                  1500.0000      0.0000    185.9000    485.8699      0.0120      0.3256      0.9500      0.9500      0.3000      0.5000      0.2000           0
LEG_820         A                  1500.0000      0.0000    196.0000    585.3755      0.0120      1.7725      0.9500      0.9500      0.3000      0.9000      0.2000           0
LEG_805         D                  1300.0000      0.0000    185.0000    420.4605      0.0120      1.2824      0.9500      0.9500      0.0000      0.0500      0.9000           0
LEG_805         D                  1300.0000      0.0000    185.0000    420.4605      0.0120      0.9859      0.9500      0.9500      0.0000      0.0500      0.9000           0
LEG_872         C                  1300.0000      0.0000    142.5000    488.4415      0.0120      1.7122      0.9500      0.9500      0.0000      0.5000      0.9000           0
LEG_1068        A                  1500.0000      0.0000    155.0000    602.5350      0.0120      1.1086      0.9500      0.9500      0.3000      0.9000      0.2000           0
LEG_1044        C                  1500.0000      0.0000    154.0000    301.4128      0.9500      0.1746      0.9500      0.9500      0.9500      0.5000      0.0100           0
LEG_820         A                  1500.0000      0.0000    196.0000    585.3755      1.0000      0.2110      0.9500      0.9500      0.9500      0.9000      0.0100           0
LEG_1047        A                  1500.0000      0.0000     76.0000    625.8287      0.0120      1.3037      0.9500      0.9500      0.3000      0.9000      0.2000           0
LEG_1037        A                  1500.0000      0.0000     74.2000    624.4730      0.0120      0.3655      0.9500      0.9500      0.9500      0.9000      0.0100           0
LEG_868         D                  1500.0000      0.0000    145.0000    545.7582      0.6500      0.1998      0.9500      0.9500      0.9500      0.0500      0.0100           0
LEG_776         D                  1500.0000      0.0000    206.4000    508.8572      0.0120      2.4985      0.9500      0.9500      0.0000      0.0500      0.9000           0
LEG_817         C                  2000.0000      0.0000    208.0000    738.4512      0.0120      0.4412      0.9500      0.9500      0.3000      0.5000      0.2000           0
LEG_817         C                  2000.0000      0.0000    208.0000    738.4512      1.0000      1.9701      0.9500      0.9500      0.0000      0.0500      0.9000           0
LEG_820         A                  1500.0000      0.0000    196.0000    585.3755      0.0120      1.4127      0.9500      0.9500      0.3000      0.9000      0.2000           0
LEG_817         C                  2000.0000      0.0000    208.0000    738.4512      0.0120      0.3335      0.9500      0.9500      0.3000      0.5000      0.2000           0
LEG_817         C                  2000.0000      0.0000    208.0000    738.4512      0.0120      0.9389      0.9500      0.9500      0.0000      0.5000      0.9000           0
LEG_820         A                  1500.0000      0.0000    196.0000    585.3755      0.0120      1.2006      0.9500      0.9500      0.3000      0.9000      0.2000           0
LEG_776         D                  1500.0000      0.0000    206.4000    508.8572      0.0120      1.6608      0.9500      0.9500      0.0000      0.0500      0.9000           0
LEG_805         D                  1300.0000      0.0000    185.0000    420.4605      0.0120      1.8257      0.9500      0.9500      0.0000      0.0500      0.9000           0
LEG_818         D                  2000.0000      0.0000    331.4000    630.1019      0.0120      1.6824      0.9500      0.9500      0.0000      0.0500      0.9000           0
LEG_778         C                  2000.0000      0.0000    227.0000    519.7825      0.0120      1.0915      0.9500      0.9500      0.0000      0.5000      0.9000           0
LEG_805         D                  1300.0000      0.0000    185.0000    420.4605      0.0120      1.9937      0.9500      0.9500      0.0000      0.0500      0.9000           0
LEG_805         D                  1300.0000      0.0000    185.0000    420.4605      0.0120      1.6811      0.9500      0.9500      0.0000      0.0500      0.9000           0
LEG_805         D                  1300.0000      0.0000    185.0000    420.4605      0.0120      2.3368      0.9500      0.9500      0.0000      0.0500      0.9000           0
LEG_805         D                  1300.0000      0.0000    185.0000    420.4605      0.0120      1.7483      0.9500      0.9500      0.0000      0.0500      0.9000           0
LEG_803         C                  1300.0000      0.0000    173.8000    501.8698      0.0120      2.3522      0.9500      0.9500      0.0000      0.0500      0.9000           0
LEG_805         D                  1300.0000      0.0000    185.0000    420.4605      0.0120      1.8564      0.9500      0.9500      0.0000      0.0500      0.9000           0
LEG_818         D                  2000.0000      0.0000    331.4000    630.1019      0.0120      0.4970      0.9500      0.9500      0.0000      0.0500      0.9000           0
LEG_818         D                  2000.0000      0.0000    331.4000    630.1019      0.0120      0.7372      0.9500      0.9500      0.0000      0.0500      0.9000           0
LEG_776         D                  1500.0000      0.0000    206.4000    508.8572      0.5500      0.7987      0.9500      0.9500      0.0000      0.0500      0.9000           0
LEG_868         D                  1500.0000      0.0000    145.0000    545.7582      0.0120      3.2303      0.9500      0.9500      0.0000      0.0500      0.9000           0
LEG_803         C                  1300.0000      0.0000    173.8000    501.8698      0.0120      0.6337      0.9500      0.9500      0.3000      0.5000      0.2000           0
LEG_803         C                  1300.0000      0.0000    173.8000    501.8698      0.9500      0.8353      0.9500      0.9500      0.0000      0.5000      0.9000           0
LEG_2008        C                  1500.0000      0.0000    270.0000    568.9463      0.0120      1.1434      0.9500      0.9500      0.0000      0.5000      0.9000           0
LEG_803         C                  1300.0000      0.0000    173.8000    501.8698      0.0120      1.1601      0.9500      0.9500      0.0000      0.5000      0.9000           0
LEG_868         D                  1500.0000      0.0000    145.0000    545.7582      0.0120      2.0872      0.9500      0.9500      0.0000      0.0500      0.9000           0
LEG_803         C                  1300.0000      0.0000    173.8000    501.8698      0.0120      1.0853      0.9500      0.9500      0.0000      0.5000      0.9000           0
LEG_868         D                  1500.0000      0.0000    145.0000    545.7582      0.0120      2.4102      0.9500      0.9500      0.0000      0.0500      0.9000           0
LEG_824         D                  2000.0000      0.0000    334.0000    486.8867      0.0120      3.6734      0.9500      0.9500      0.0000      0.0500      0.9000           0
LEG_818         D                  2000.0000      0.0000    331.4000    630.1019      0.0120      1.4613      0.9500      0.9500      0.0000      0.0500      0.9000           0
LEG_818         D                  2000.0000      0.0000    331.4000    630.1019      0.0120      8.3050      0.9500      0.9500      0.0000      0.0500      0.9000           0
LEG_824         D                  2000.0000      0.0000    334.0000    486.8867      0.0120      0.5060      0.9500      0.9500      0.0000      0.0500      0.9000           0
LEG_818         D                  2000.0000      0.0000    331.4000    630.1019      0.0120      1.0569      0.9500      0.9500      0.0000      0.0500      0.9000           0
LEG_778         C                  2000.0000      0.0000    227.0000    519.7825      0.0120      2.1949      0.9500      0.9500      0.0000      0.0500      0.9000           0
LEG_778         C                  2000.0000      0.0000    227.0000    519.7825      0.0120      2.1723      0.9500      0.9500      0.0000      0.0500      0.9000           0
LEG_2008        C                  1500.0000      0.0000    270.0000    568.9463      0.0120      0.9293      0.9500      0.9500      0.0000      0.5000      0.9000           0
LEG_795         D                  1500.0000      0.0000    245.5000    325.5345      0.0120      1.0766      0.9500      0.9500      0.0000      0.0500      0.9000           0
LEG_824         D                  2000.0000      0.0000    334.0000    486.8867      0.9500      0.2445      0.9500      0.9500      0.3000      0.0500      0.2000           0
LEG_1068        A                  1500.0000      0.0000    155.0000    602.5350      0.0120      0.3599      0.9500      0.9500      0.9500      0.9000      0.0100           0
LEG_1060        A                  1500.0000      0.0000     87.5000    631.5907      0.0120      0.2159      0.9500      0.9500      0.9500      0.9000      0.0100           0
LEG_1069        D                  1300.0000      0.0000    140.4000    227.7452      0.0120      0.4275      0.9500      0.9500      0.0000      0.0500      0.9000           0
LEG_1069        D                  1300.0000      0.0000    140.4000    227.7452      0.0120      0.8894      0.9500      0.9500      0.0000      0.0500      0.9000           0
LEG_1069        D                  1300.0000      0.0000    140.4000    227.7452      0.0120      0.4710      0.9500      0.9500      0.0000      0.0500      0.9000           0
LEG_1069        D                  1300.0000      0.0000    140.4000    227.7452      0.0120      0.5518      0.9500      0.9500      0.0000      0.0500      0.9000           0
LEG_1069        D                  1300.0000      0.0000    140.4000    227.7452      0.5500      0.2353      0.9500      0.9500      0.3000      0.0500      0.2000           0
LEG_1069        D                  1300.0000      0.0000    140.4000    227.7452      0.0120      0.2624      0.9500      0.9500      0.3000      0.0500      0.2000           0
LEG_1014        B                  1200.0000      0.0000    216.1000    394.1729      0.0120      0.4752      0.9500      0.9500      0.3000      0.9000      0.2000           0
LEG_1079        A                  1800.0000      0.0000    113.3000    755.2457      1.0000      0.3415      0.9500      0.9500      0.9500      0.9000      0.0100           0
LEG_1021        A                  1500.0000      0.0000     78.1000    641.6910      1.0000      0.4646      0.9500      0.9500      0.9500      0.9000      0.0100           0
LEG_1021        A                  1500.0000      0.0000     78.1000    641.6910      1.0000      0.2926      0.9500      0.9500      0.9500      0.9000      0.0100           0
LEG_1021        A                  1500.0000      0.0000     78.1000    641.6910      1.0000      0.3661      0.9500      0.9500      0.9500      0.9000      0.0100           0
LEG_1021        A                  1500.0000      0.0000     78.1000    641.6910      0.0120      2.0718      0.9500      0.9500      0.0000      0.9000      0.9000           0
LEG_1076        A                  1500.0000      0.0000    181.5000    597.1724      0.0120      0.9554      0.9500      0.9500      0.3000      0.9000      0.2000           0
LEG_1041        C                  1500.0000      0.0000    185.9000    485.8699      0.0120      0.2891      0.9500      0.9500      0.3000      0.5000      0.2000           0
LEG_820         A                  1500.0000      0.0000    196.0000    585.3755      1.0000      0.3478      0.9500      0.9500      0.9500      0.9000      0.0100           0
LEG_863         C                  1500.0000      0.0000    260.5000    363.2115      0.7500      0.4091      0.9500      0.9500      0.9500      0.1000      0.0100           1
LEG_805         D                  1300.0000      0.0000    185.0000    420.4605      0.7500      0.5290      0.9500      0.9500      0.9500      0.1000      0.0100           1
LEG_820         A                  1500.0000      0.0000    196.0000    585.3755      0.0120      0.1508      0.9500      0.9500      0.9500      0.9000      0.0100           0
LEG_820         A                  1500.0000      0.0000    196.0000    585.3755      0.1200      0.1658      0.9500      0.9500      0.9500      0.9000      0.0100           0
LEG_1080        A                  1800.0000      0.0000    203.0000    643.9475      0.0120      0.2462      0.9500      0.9500      0.9500      0.9000      0.0100           0
LEG_1080        A                  1800.0000      0.0000    203.0000    643.9475      1.0000      0.1951      0.9500      0.9500      0.9500      0.9000      0.0100           0
LEG_1076        A                  1500.0000      0.0000    181.5000    597.1724      0.0120      0.9266      0.9500      0.9500      0.3000      0.9000      0.2000           0
LEG_820         A                  1500.0000      0.0000    196.0000    585.3755      0.0120      0.3550      0.9500      0.9500      0.9500      0.9000      0.0100           0
LEG_820         A                  1500.0000      0.0000    196.0000    585.3755      0.0120      0.3048      0.9500      0.9500      0.9500      0.9000      0.0100           0
LEG_805         D                  1300.0000      0.0000    185.0000    420.4605      0.0120      1.7281      0.9500      0.9500      0.0000      0.0500      0.9000           0
LEG_805         D                  1300.0000      0.0000    185.0000    420.4605      0.0120      1.9150      0.9500      0.9500      0.0000      0.0500      0.9000           0
LEG_863         C                  1500.0000      0.0000    260.5000    363.2115      0.0120      1.4106      0.9500      0.9500      0.0000      0.5000      0.9000           0
LEG_817         C                  2000.0000      0.0000    208.0000    738.4512      0.0120      0.3616      0.9500      0.9500      0.3000      0.5000      0.2000           0
LEG_863         C                  1500.0000      0.0000    260.5000    363.2115      0.0120      1.6366      0.9500      0.9500      0.0000      0.5000      0.9000           0
LEG_789         A                  1500.0000      0.0000    144.5000    573.1991      0.0120      2.3623      0.9500      0.9500      0.0000      0.9000      0.9000           0
LEG_789         A                  1500.0000      0.0000    144.5000    573.1991      0.0120      0.6945      0.9500      0.9500      0.3000      0.9000      0.2000           0
LEG_789         A                  1500.0000      0.0000    144.5000    573.1991      0.0120      1.7152      0.9500      0.9500      0.3000      0.9000      0.2000           0
LEG_803         C                  1300.0000      0.0000    173.8000    501.8698      0.7500      0.2594      0.9500      0.9500      0.3000      0.5000      0.2000           0
LEG_820         A                  1500.0000      0.0000    196.0000    585.3755      0.0120      0.4372      0.9500      0.9500      0.9500      0.9000      0.0100           0
LEG_823         C                  1800.0000      0.0000    305.0000    471.4186      0.6500      0.1613      0.9500      0.9500      0.9500      0.5000      0.0100           0
LEG_805         D                  1300.0000      0.0000    185.0000    420.4605      0.0120      3.6724      0.9500      0.9500      0.0000      0.0500      0.9000           0
LEG_820         A                  1500.0000      0.0000    196.0000    585.3755      0.0120      0.5237      0.9500      0.9500      0.9500      0.9000      0.0100           0
LEG_2008        C                  1500.0000      0.0000    270.0000    568.9463      0.0120      0.9231      0.9500      0.9500      0.0000      0.5000      0.9000           0
LEG_803         C                  1300.0000      0.0000    173.8000    501.8698      0.0120      0.7227      0.9500      0.9500      0.0000      0.5000      0.9000           0
LEG_823         C                  1800.0000      0.0000    305.0000    471.4186      0.0120      0.3369      0.9500      0.9500      0.3000      0.5000      0.2000           0
LEG_823         C                  1800.0000      0.0000    305.0000    471.4186      0.6500      0.1816      0.9500      0.9500      0.9500      0.5000      0.0100           0
LEG_823         C                  1800.0000      0.0000    305.0000    471.4186      0.0120      0.3784      0.9500      0.9500      0.3000      0.5000      0.2000           0
LEG_805         D                  1300.0000      0.0000    185.0000    420.4605      0.7500      0.2822      0.9500      0.9500      0.9500      0.1000      0.0100           1
LEG_1068        A                  1500.0000      0.0000    155.0000    602.5350      0.0120      0.3166      0.9500      0.9500      0.9500      0.9000      0.0100           0
LEG_1079        A                  1800.0000      0.0000    113.3000    755.2457      0.8500      0.0932      0.9500      0.9500      0.9500      0.9000      0.0100           0
LEG_1068        A                  1500.0000      0.0000    155.0000    602.5350      0.0120      0.1594      0.9500      0.9500      0.9500      0.9000      0.0100           0
LEG_805         D                  1300.0000      0.0000    185.0000    420.4605      0.0120      1.2408      0.9500      0.9500      0.0000      0.0500      0.9000           0
LEG_805         D                  1300.0000      0.0000    185.0000    420.4605      0.0120      2.1980      0.9500      0.9500      0.0000      0.0500      0.9000           0
LEG_805         D                  1300.0000      0.0000    185.0000    420.4605      0.0120      7.7339      0.9500      0.9500      0.0000      0.0500      0.9000           0
