 tetves_data               SWAT+ Jan 11 2024        MODULAR Rev 2024.61.0                                 
                                        zmx       usle_k       sumfc       sumul      usle_p     usle_ls        esco        epco     cn3_swf       perco     latq_co   tiledrain 
 sname           hydgrp                 (mm)                    (mm)        (mm)                                                                                     0=notile;1=tile;
1.0             C                  2000.0000      0.0000    273.0840    512.3110      1.0000      0.6975      0.0500      1.0000      0.0000      0.5000      0.9000           0
1.0             C                  2000.0000      0.0000    273.0840    512.3110      1.0000      0.9051      0.0500      1.0000      0.0000      0.5000      0.9000           0
1.0             C                  2000.0000      0.0000    273.0840    512.3110      1.0000      0.3654      0.0500      1.0000      0.9500      0.9000      0.0100           0
1.0             C                  2000.0000      0.0000    273.0840    512.3110      1.0000      0.2080      0.0500      1.0000      0.3000      0.5000      0.2000           0
1.0             C                  2000.0000      0.0000    273.0840    512.3110      1.0000      0.1580      0.0500      1.0000      0.9500      0.5000      0.0100           0
1.0             C                  2000.0000      0.0000    273.0840    512.3110      1.0000      0.5556      0.0500      1.0000      0.3000      0.5000      0.2000           0
1.0             C                  2000.0000      0.0000    273.0840    512.3110      1.0000      0.4641      0.0500      1.0000      0.3000      0.5000      0.2000           0
1.0             C                  2000.0000      0.0000    273.0840    512.3110      1.0000      0.2794      0.0500      1.0000      0.3000      0.5000      0.2000           0
1.0             C                  2000.0000      0.0000    273.0840    512.3110      1.0000      0.5582      0.0500      1.0000      0.3000      0.5000      0.2000           0
1.0             C                  2000.0000      0.0000    273.0840    512.3110      1.0000      0.3626      0.0500      1.0000      0.3000      0.5000      0.2000           0
1.0             C                  2000.0000      0.0000    273.0840    512.3110      1.0000      0.2897      0.0500      1.0000      0.3000      0.5000      0.2000           0
1.0             C                  2000.0000      0.0000    273.0840    512.3110      1.0000      0.1835      0.0500      1.0000      0.9500      0.5000      0.0100           0
1.0             C                  2000.0000      0.0000    273.0840    512.3110      1.0000      0.3013      0.0500      1.0000      0.3000      0.5000      0.2000           0
1.0             C                  2000.0000      0.0000    273.0840    512.3110      1.0000      0.6223      0.0500      1.0000      0.3000      0.5000      0.2000           0
1.0             C                  2000.0000      0.0000    273.0840    512.3110      1.0000      0.5738      0.0500      1.0000      0.3000      0.5000      0.2000           0
1.0             C                  2000.0000      0.0000    273.0840    512.3110      1.0000      1.1374      0.0500      1.0000      0.0000      0.5000      0.9000           0
1.0             C                  2000.0000      0.0000    273.0840    512.3110      1.0000      0.4942      0.0500      1.0000      0.3000      0.5000      0.2000           0
1.0             C                  2000.0000      0.0000    273.0840    512.3110      1.0000      0.3036      0.0500      1.0000      0.3000      0.5000      0.2000           0
1.0             C                  2000.0000      0.0000    273.0840    512.3110      1.0000      0.4309      0.0500      1.0000      0.3000      0.5000      0.2000           0
1.0             C                  2000.0000      0.0000    273.0840    512.3110      1.0000      0.6895      0.0500      1.0000      0.0000      0.5000      0.9000           0
1.0             C                  2000.0000      0.0000    273.0840    512.3110      1.0000      0.5768      0.0500      1.0000      0.3000      0.5000      0.2000           0
1.0             C                  2000.0000      0.0000    273.0840    512.3110      1.0000      0.2391      0.0500      1.0000      0.3000      0.5000      0.2000           0
1.0             C                  2000.0000      0.0000    273.0840    512.3110      1.0000      0.6538      0.0500      1.0000      0.3000      0.5000      0.2000           0
1.0             C                  2000.0000      0.0000    273.0840    512.3110      1.0000      0.4297      0.0500      1.0000      0.3000      0.5000      0.2000           0
1.0             C                  2000.0000      0.0000    273.0840    512.3110      1.0000      1.4041      0.0500      1.0000      0.0000      0.5000      0.9000           0
1.0             C                  2000.0000      0.0000    273.0840    512.3110      1.0000      1.0551      0.0500      1.0000      0.0000      0.5000      0.9000           0
1.0             C                  2000.0000      0.0000    273.0840    512.3110      1.0000      1.5318      0.0500      1.0000      0.0000      0.5000      0.9000           0
1.0             C                  2000.0000      0.0000    273.0840    512.3110      1.0000      1.2446      0.0500      1.0000      0.0000      0.5000      0.9000           0
1.0             C                  2000.0000      0.0000    273.0840    512.3110      1.0000      0.3121      0.0500      1.0000      0.3000      0.5000      0.2000           0
1.0             C                  2000.0000      0.0000    273.0840    512.3110      1.0000      0.3331      0.0500      1.0000      0.9500      0.9000      0.0100           0
1.0             C                  2000.0000      0.0000    273.0840    512.3110      1.0000      1.3563      0.0500      1.0000      0.0000      0.5000      0.9000           0
1.0             C                  2000.0000      0.0000    273.0840    512.3110      1.0000      4.1393      0.0500      1.0000      0.0000      0.0500      0.9000           0
1.0             C                  2000.0000      0.0000    273.0840    512.3110      1.0000      0.9978      0.0500      1.0000      0.0000      0.5000      0.9000           0
1.0             C                  2000.0000      0.0000    273.0840    512.3110      1.0000     10.3016      0.0500      1.0000      0.0000      0.0500      0.9000           0
1.0             C                  2000.0000      0.0000    273.0840    512.3110      1.0000      0.3970      0.0500      1.0000      0.3000      0.5000      0.2000           0
1.0             C                  2000.0000      0.0000    273.0840    512.3110      1.0000      0.3711      0.0500      1.0000      0.3000      0.5000      0.2000           0
1.0             C                  2000.0000      0.0000    273.0840    512.3110      1.0000      0.4061      0.0500      1.0000      0.3000      0.5000      0.2000           0
1.0             C                  2000.0000      0.0000    273.0840    512.3110      1.0000      0.6617      0.0500      1.0000      0.3000      0.5000      0.2000           0
1.0             C                  2000.0000      0.0000    273.0840    512.3110      1.0000      0.2770      0.0500      1.0000      0.3000      0.5000      0.2000           0
1.0             C                  2000.0000      0.0000    273.0840    512.3110      1.0000      0.2995      0.0500      1.0000      0.3000      0.5000      0.2000           0
1.0             C                  2000.0000      0.0000    273.0840    512.3110      1.0000      0.3167      0.0500      1.0000      0.3000      0.5000      0.2000           0
1.0             C                  2000.0000      0.0000    273.0840    512.3110      1.0000      0.2717      0.0500      1.0000      0.3000      0.5000      0.2000           0
1.0             C                  2000.0000      0.0000    273.0840    512.3110      1.0000      0.9470      0.0500      1.0000      0.0000      0.5000      0.9000           0
1.0             C                  2000.0000      0.0000    273.0840    512.3110      1.0000      0.3706      0.0500      1.0000      0.3000      0.5000      0.2000           0
1.0             C                  2000.0000      0.0000    273.0840    512.3110      1.0000      0.3857      0.0500      1.0000      0.3000      0.5000      0.2000           0
1.0             C                  2000.0000      0.0000    273.0840    512.3110      1.0000      0.2790      0.0500      1.0000      0.3000      0.5000      0.2000           0
1.0             C                  2000.0000      0.0000    273.0840    512.3110      1.0000      2.3072      0.0500      1.0000      0.0000      0.0500      0.9000           0
1.0             C                  2000.0000      0.0000    273.0840    512.3110      1.0000      0.2783      0.0500      1.0000      0.3000      0.5000      0.2000           0
1.0             C                  2000.0000      0.0000    273.0840    512.3110      1.0000      0.7049      0.0500      1.0000      0.0000      0.5000      0.9000           0
1.0             C                  2000.0000      0.0000    273.0840    512.3110      1.0000      0.6095      0.0500      1.0000      0.3000      0.5000      0.2000           0
1.0             C                  2000.0000      0.0000    273.0840    512.3110      1.0000      0.1918      0.0500      1.0000      0.9500      0.5000      0.0100           0
1.0             C                  2000.0000      0.0000    273.0840    512.3110      0.2500      0.2260      0.0500      1.0000      0.3000      0.5000      0.2000           0
1.0             C                  2000.0000      0.0000    273.0840    512.3110      0.2500      0.3974      0.0500      1.0000      0.3000      0.5000      0.2000           0
1.0             C                  2000.0000      0.0000    273.0840    512.3110      1.0000      1.0406      0.0500      1.0000      0.0000      0.5000      0.9000           0
1.0             C                  2000.0000      0.0000    273.0840    512.3110      1.0000      0.2666      0.0500      1.0000      0.3000      0.5000      0.2000           0
1.0             C                  2000.0000      0.0000    273.0840    512.3110      0.2500      0.4807      0.0500      1.0000      0.3000      0.9000      0.2000           0
1.0             C                  2000.0000      0.0000    273.0840    512.3110      1.0000      0.5491      0.0500      1.0000      0.3000      0.5000      0.2000           0
1.0             C                  2000.0000      0.0000    273.0840    512.3110      1.0000      1.6907      0.0500      1.0000      0.0000      0.5000      0.9000           0
1.0             C                  2000.0000      0.0000    273.0840    512.3110      1.0000      4.5798      0.0500      1.0000      0.0000      0.0500      0.9000           0
1.0             C                  2000.0000      0.0000    273.0840    512.3110      1.0000      0.2609      0.0500      1.0000      0.3000      0.5000      0.2000           0
1.0             C                  2000.0000      0.0000    273.0840    512.3110      1.0000      0.2839      0.0500      1.0000      0.3000      0.5000      0.2000           0
1.0             C                  2000.0000      0.0000    273.0840    512.3110      1.0000      0.4371      0.0500      1.0000      0.3000      0.5000      0.2000           0
1.0             C                  2000.0000      0.0000    273.0840    512.3110      1.0000      0.3579      0.0500      1.0000      0.3000      0.5000      0.2000           0
1.0             C                  2000.0000      0.0000    273.0840    512.3110      1.0000      0.5614      0.0500      1.0000      0.3000      0.5000      0.2000           0
1.0             C                  2000.0000      0.0000    273.0840    512.3110      1.0000      0.5496      0.0500      1.0000      0.3000      0.5000      0.2000           0
1.0             C                  2000.0000      0.0000    273.0840    512.3110      1.0000      1.5192      0.0500      1.0000      0.0000      0.5000      0.9000           0
1.0             C                  2000.0000      0.0000    273.0840    512.3110      1.0000      0.7798      0.0500      1.0000      0.0000      0.5000      0.9000           0
1.0             C                  2000.0000      0.0000    273.0840    512.3110      1.0000      2.8474      0.0500      1.0000      0.0000      0.5000      0.9000           0
1.0             C                  2000.0000      0.0000    273.0840    512.3110      1.0000      4.8034      0.0500      1.0000      0.0000      0.0500      0.9000           0
1.0             C                  2000.0000      0.0000    273.0840    512.3110      1.0000      0.5547      0.0500      1.0000      0.3000      0.5000      0.2000           0
1.0             C                  2000.0000      0.0000    273.0840    512.3110      1.0000      3.9301      0.0500      1.0000      0.0000      0.5000      0.9000           0
1.0             C                  2000.0000      0.0000    273.0840    512.3110      1.0000      0.3031      0.0500      1.0000      0.9500      0.9000      0.0100           0
1.0             C                  2000.0000      0.0000    273.0840    512.3110      1.0000      0.3109      0.0500      1.0000      0.3000      0.5000      0.2000           0
1.0             C                  2000.0000      0.0000    273.0840    512.3110      1.0000      0.3781      0.0500      1.0000      0.3000      0.5000      0.2000           0
1.0             C                  2000.0000      0.0000    273.0840    512.3110      1.0000      0.2897      0.0500      1.0000      0.3000      0.5000      0.2000           0
1.0             C                  2000.0000      0.0000    273.0840    512.3110      1.0000      0.2080      0.0500      1.0000      0.3000      0.5000      0.2000           0
1.0             C                  2000.0000      0.0000    273.0840    512.3110      1.0000      0.2014      0.0500      1.0000      0.3000      0.5000      0.2000           0
1.0             C                  2000.0000      0.0000    273.0840    512.3110      1.0000      0.2295      0.0500      1.0000      0.3000      0.5000      0.2000           0
1.0             C                  2000.0000      0.0000    273.0840    512.3110      1.0000      0.6337      0.0500      1.0000      0.3000      0.9000      0.2000           0
1.0             C                  2000.0000      0.0000    273.0840    512.3110      1.0000      0.3837      0.0500      1.0000      0.3000      0.5000      0.2000           0
1.0             C                  2000.0000      0.0000    273.0840    512.3110      1.0000      0.3465      0.0500      1.0000      0.3000      0.5000      0.2000           0
1.0             C                  2000.0000      0.0000    273.0840    512.3110      1.0000      0.4140      0.0500      1.0000      0.3000      0.5000      0.2000           0
1.0             C                  2000.0000      0.0000    273.0840    512.3110      1.0000      0.9067      0.0500      1.0000      0.0000      0.5000      0.9000           0
1.0             C                  2000.0000      0.0000    273.0840    512.3110      1.0000      1.2852      0.0500      1.0000      0.0000      0.5000      0.9000           0
1.0             C                  2000.0000      0.0000    273.0840    512.3110      1.0000      0.3259      0.0500      1.0000      0.3000      0.5000      0.2000           0
1.0             C                  2000.0000      0.0000    273.0840    512.3110      1.0000      0.2519      0.0500      1.0000      0.3000      0.5000      0.2000           0
1.0             C                  2000.0000      0.0000    273.0840    512.3110      1.0000      0.5718      0.0500      1.0000      0.3000      0.5000      0.2000           0
1.0             C                  2000.0000      0.0000    273.0840    512.3110      1.0000      0.3420      0.0500      1.0000      0.3000      0.5000      0.2000           0
1.0             C                  2000.0000      0.0000    273.0840    512.3110      0.2500      1.9542      0.0500      1.0000      0.0000      0.0500      0.9000           0
1.0             C                  2000.0000      0.0000    273.0840    512.3110      1.0000      0.8862      0.0500      1.0000      0.0000      0.5000      0.9000           0
1.0             C                  2000.0000      0.0000    273.0840    512.3110      1.0000      0.3484      0.0500      1.0000      0.3000      0.5000      0.2000           0
1.0             C                  2000.0000      0.0000    273.0840    512.3110      1.0000      0.6455      0.0500      1.0000      0.3000      0.5000      0.2000           0
1.0             C                  2000.0000      0.0000    273.0840    512.3110      1.0000      0.2782      0.0500      1.0000      0.3000      0.5000      0.2000           0
1.0             C                  2000.0000      0.0000    273.0840    512.3110      1.0000      0.4587      0.0500      1.0000      0.3000      0.5000      0.2000           0
1.0             C                  2000.0000      0.0000    273.0840    512.3110      0.2500      2.6333      0.0500      1.0000      0.0000      0.0500      0.9000           0
1.0             C                  2000.0000      0.0000    273.0840    512.3110      1.0000      0.3578      0.0500      1.0000      0.3000      0.5000      0.2000           0
1.0             C                  2000.0000      0.0000    273.0840    512.3110      1.0000      0.3910      0.0500      1.0000      0.3000      0.5000      0.2000           0
1.0             C                  2000.0000      0.0000    273.0840    512.3110      1.0000      0.4247      0.0500      1.0000      0.3000      0.9000      0.2000           0
1.0             C                  2000.0000      0.0000    273.0840    512.3110      1.0000      0.6756      0.0500      1.0000      0.0000      0.5000      0.9000           0
1.0             C                  2000.0000      0.0000    273.0840    512.3110      1.0000      0.2802      0.0500      1.0000      0.3000      0.5000      0.2000           0
1.0             C                  2000.0000      0.0000    273.0840    512.3110      1.0000      0.2642      0.0500      1.0000      0.3000      0.5000      0.2000           0
1.0             C                  2000.0000      0.0000    273.0840    512.3110      1.0000      1.5876      0.0500      1.0000      0.0000      0.5000      0.9000           0
1.0             C                  2000.0000      0.0000    273.0840    512.3110      1.0000      0.4708      0.0500      1.0000      0.3000      0.5000      0.2000           0
1.0             C                  2000.0000      0.0000    273.0840    512.3110      1.0000      1.0331      0.0500      1.0000      0.0000      0.5000      0.9000           0
1.0             C                  2000.0000      0.0000    273.0840    512.3110      0.2500      3.8902      0.0500      1.0000      0.0000      0.0500      0.9000           0
1.0             C                  2000.0000      0.0000    273.0840    512.3110      1.0000      2.1015      0.0500      1.0000      0.0000      0.0500      0.9000           0
1.0             C                  2000.0000      0.0000    273.0840    512.3110      0.2500      0.4175      0.0500      1.0000      0.3000      0.5000      0.2000           0
1.0             C                  2000.0000      0.0000    273.0840    512.3110      1.0000      2.1908      0.0500      1.0000      0.0000      0.0500      0.9000           0
1.0             C                  2000.0000      0.0000    273.0840    512.3110      1.0000      2.2446      0.0500      1.0000      0.0000      0.0500      0.9000           0
1.0             C                  2000.0000      0.0000    273.0840    512.3110      1.0000      0.7248      0.0500      1.0000      0.0000      0.5000      0.9000           0
1.0             C                  2000.0000      0.0000    273.0840    512.3110      1.0000      0.1966      0.0500      1.0000      0.9500      0.5000      0.0100           0
1.0             C                  2000.0000      0.0000    273.0840    512.3110      1.0000      0.5621      0.0500      1.0000      0.3000      0.5000      0.2000           0
1.0             C                  2000.0000      0.0000    273.0840    512.3110      1.0000      0.7105      0.0500      1.0000      0.0000      0.5000      0.9000           0
1.0             C                  2000.0000      0.0000    273.0840    512.3110      1.0000      0.4409      0.0500      1.0000      0.3000      0.5000      0.2000           0
1.0             C                  2000.0000      0.0000    273.0840    512.3110      1.0000      1.1693      0.0500      1.0000      0.0000      0.5000      0.9000           0
1.0             C                  2000.0000      0.0000    273.0840    512.3110      1.0000      0.3512      0.0500      1.0000      0.3000      0.5000      0.2000           0
1.0             C                  2000.0000      0.0000    273.0840    512.3110      1.0000      1.5588      0.0500      1.0000      0.0000      0.5000      0.9000           0
1.0             C                  2000.0000      0.0000    273.0840    512.3110      1.0000      0.6068      0.0500      1.0000      0.3000      0.5000      0.2000           0
1.0             C                  2000.0000      0.0000    273.0840    512.3110      1.0000      0.3166      0.0500      1.0000      0.9500      0.9000      0.0100           0
1.0             C                  2000.0000      0.0000    273.0840    512.3110      1.0000      0.2600      0.0500      1.0000      0.3000      0.5000      0.2000           0
1.0             C                  2000.0000      0.0000    273.0840    512.3110      1.0000      0.4812      0.0500      1.0000      0.3000      0.5000      0.2000           0
1.0             C                  2000.0000      0.0000    273.0840    512.3110      1.0000      0.1371      0.0500      1.0000      0.9500      0.5000      0.0100           0
1.0             C                  2000.0000      0.0000    273.0840    512.3110      1.0000      0.4799      0.0500      1.0000      0.3000      0.5000      0.2000           0
1.0             C                  2000.0000      0.0000    273.0840    512.3110      1.0000      0.5842      0.0500      1.0000      0.3000      0.5000      0.2000           0
1.0             C                  2000.0000      0.0000    273.0840    512.3110      1.0000      0.6673      0.0500      1.0000      0.3000      0.5000      0.2000           0
1.0             C                  2000.0000      0.0000    273.0840    512.3110      0.2500      6.0307      0.0500      1.0000      0.0000      0.0500      0.9000           0
1.0             C                  2000.0000      0.0000    273.0840    512.3110      1.0000      0.5883      0.0500      1.0000      0.3000      0.5000      0.2000           0
1.0             C                  2000.0000      0.0000    273.0840    512.3110      1.0000      0.7422      0.0500      1.0000      0.0000      0.5000      0.9000           0
1.0             C                  2000.0000      0.0000    273.0840    512.3110      1.0000      0.6009      0.0500      1.0000      0.3000      0.5000      0.2000           0
1.0             C                  2000.0000      0.0000    273.0840    512.3110      1.0000      0.4196      0.0500      1.0000      0.3000      0.5000      0.2000           0
1.0             C                  2000.0000      0.0000    273.0840    512.3110      1.0000      0.1922      0.0500      1.0000      0.9500      0.5000      0.0100           0
1.0             C                  2000.0000      0.0000    273.0840    512.3110      1.0000      0.6372      0.0500      1.0000      0.3000      0.9000      0.2000           0
1.0             C                  2000.0000      0.0000    273.0840    512.3110      1.0000      0.4915      0.0500      1.0000      0.3000      0.5000      0.2000           0
1.0             C                  2000.0000      0.0000    273.0840    512.3110      1.0000      1.2659      0.0500      1.0000      0.0000      0.5000      0.9000           0
1.0             C                  2000.0000      0.0000    273.0840    512.3110      1.0000      1.2718      0.0500      1.0000      0.0000      0.5000      0.9000           0
1.0             C                  2000.0000      0.0000    273.0840    512.3110      1.0000      0.3530      0.0500      1.0000      0.3000      0.5000      0.2000           0
1.0             C                  2000.0000      0.0000    273.0840    512.3110      1.0000      0.8451      0.0500      1.0000      0.0000      0.5000      0.9000           0
1.0             C                  2000.0000      0.0000    273.0840    512.3110      1.0000      1.2208      0.0500      1.0000      0.0000      0.5000      0.9000           0
1.0             C                  2000.0000      0.0000    273.0840    512.3110      1.0000      0.7900      0.0500      1.0000      0.0000      0.5000      0.9000           0
1.0             C                  2000.0000      0.0000    273.0840    512.3110      1.0000      0.6520      0.0500      1.0000      0.3000      0.5000      0.2000           0
1.0             C                  2000.0000      0.0000    273.0840    512.3110      1.0000      1.9542      0.0500      1.0000      0.0000      0.0500      0.9000           0
1.0             C                  2000.0000      0.0000    273.0840    512.3110      1.0000      1.2657      0.0500      1.0000      0.0000      0.5000      0.9000           0
1.0             C                  2000.0000      0.0000    273.0840    512.3110      1.0000      0.4950      0.0500      1.0000      0.3000      0.5000      0.2000           0
1.0             C                  2000.0000      0.0000    273.0840    512.3110      1.0000      0.8476      0.0500      1.0000      0.0000      0.5000      0.9000           0
1.0             C                  2000.0000      0.0000    273.0840    512.3110      1.0000      0.1918      0.0500      1.0000      0.9500      0.5000      0.0100           0
1.0             C                  2000.0000      0.0000    273.0840    512.3110      1.0000      1.7564      0.0500      1.0000      0.0000      0.5000      0.9000           0
1.0             C                  2000.0000      0.0000    273.0840    512.3110      1.0000      1.1653      0.0500      1.0000      0.0000      0.5000      0.9000           0
1.0             C                  2000.0000      0.0000    273.0840    512.3110      1.0000      1.9559      0.0500      1.0000      0.0000      0.0500      0.9000           0
1.0             C                  2000.0000      0.0000    273.0840    512.3110      1.0000      0.2799      0.0500      1.0000      0.3000      0.5000      0.2000           0
1.0             C                  2000.0000      0.0000    273.0840    512.3110      1.0000      1.6647      0.0500      1.0000      0.0000      0.5000      0.9000           0
1.0             C                  2000.0000      0.0000    273.0840    512.3110      1.0000      0.9407      0.0500      1.0000      0.0000      0.5000      0.9000           0
1.0             C                  2000.0000      0.0000    273.0840    512.3110      1.0000      1.2736      0.0500      1.0000      0.0000      0.5000      0.9000           0
1.0             C                  2000.0000      0.0000    273.0840    512.3110      0.2500      5.4704      0.0500      1.0000      0.0000      0.0500      0.9000           0
1.0             C                  2000.0000      0.0000    273.0840    512.3110      1.0000      0.5035      0.0500      1.0000      0.3000      0.5000      0.2000           0
1.0             C                  2000.0000      0.0000    273.0840    512.3110      1.0000      0.7405      0.0500      1.0000      0.0000      0.5000      0.9000           0
1.0             C                  2000.0000      0.0000    273.0840    512.3110      1.0000      0.8521      0.0500      1.0000      0.0000      0.5000      0.9000           0
1.0             C                  2000.0000      0.0000    273.0840    512.3110      1.0000      0.9429      0.0500      1.0000      0.0000      0.5000      0.9000           0
1.0             C                  2000.0000      0.0000    273.0840    512.3110      1.0000      0.6101      0.0500      1.0000      0.3000      0.5000      0.2000           0
1.0             C                  2000.0000      0.0000    273.0840    512.3110      1.0000      0.5440      0.0500      1.0000      0.3000      0.5000      0.2000           0
1.0             C                  2000.0000      0.0000    273.0840    512.3110      1.0000      0.8721      0.0500      1.0000      0.0000      0.5000      0.9000           0
1.0             C                  2000.0000      0.0000    273.0840    512.3110      1.0000      0.7407      0.0500      1.0000      0.0000      0.5000      0.9000           0
1.0             C                  2000.0000      0.0000    273.0840    512.3110      1.0000      1.9846      0.0500      1.0000      0.0000      0.0500      0.9000           0
1.0             C                  2000.0000      0.0000    273.0840    512.3110      1.0000      0.7411      0.0500      1.0000      0.0000      0.5000      0.9000           0
1.0             C                  2000.0000      0.0000    273.0840    512.3110      1.0000      2.2804      0.0500      1.0000      0.0000      0.0500      0.9000           0
1.0             C                  2000.0000      0.0000    273.0840    512.3110      1.0000      0.6717      0.0500      1.0000      0.3000      0.5000      0.2000           0
1.0             C                  2000.0000      0.0000    273.0840    512.3110      1.0000      1.3216      0.0500      1.0000      0.0000      0.5000      0.9000           0
1.0             C                  2000.0000      0.0000    273.0840    512.3110      1.0000      0.9224      0.0500      1.0000      0.0000      0.5000      0.9000           0
1.0             C                  2000.0000      0.0000    273.0840    512.3110      1.0000      0.9449      0.0500      1.0000      0.0000      0.5000      0.9000           0
1.0             C                  2000.0000      0.0000    273.0840    512.3110      1.0000      0.9191      0.0500      1.0000      0.0000      0.5000      0.9000           0
1.0             C                  2000.0000      0.0000    273.0840    512.3110      1.0000      1.2828      0.0500      1.0000      0.0000      0.5000      0.9000           0
1.0             C                  2000.0000      0.0000    273.0840    512.3110      1.0000      0.5025      0.0500      1.0000      0.3000      0.9000      0.2000           0
1.0             C                  2000.0000      0.0000    273.0840    512.3110      1.0000      0.6091      0.0500      1.0000      0.3000      0.5000      0.2000           0
1.0             C                  2000.0000      0.0000    273.0840    512.3110      1.0000      1.2718      0.0500      1.0000      0.0000      0.5000      0.9000           0
1.0             C                  2000.0000      0.0000    273.0840    512.3110      1.0000      1.0595      0.0500      1.0000      0.0000      0.5000      0.9000           0
1.0             C                  2000.0000      0.0000    273.0840    512.3110      1.0000      0.8422      0.0500      1.0000      0.0000      0.5000      0.9000           0
1.0             C                  2000.0000      0.0000    273.0840    512.3110      1.0000      0.2717      0.0500      1.0000      0.3000      0.5000      0.2000           0
1.0             C                  2000.0000      0.0000    273.0840    512.3110      1.0000      1.1622      0.0500      1.0000      0.0000      0.5000      0.9000           0
1.0             C                  2000.0000      0.0000    273.0840    512.3110      1.0000      0.3971      0.0500      1.0000      0.3000      0.5000      0.2000           0
1.0             C                  2000.0000      0.0000    273.0840    512.3110      1.0000      0.6264      0.0500      1.0000      0.3000      0.5000      0.2000           0
1.0             C                  2000.0000      0.0000    273.0840    512.3110      1.0000      3.3032      0.0500      1.0000      0.0000      0.5000      0.9000           0
1.0             C                  2000.0000      0.0000    273.0840    512.3110      1.0000      0.9503      0.0500      1.0000      0.0000      0.5000      0.9000           0
1.0             C                  2000.0000      0.0000    273.0840    512.3110      1.0000      1.1577      0.0500      1.0000      0.0000      0.5000      0.9000           0
1.0             C                  2000.0000      0.0000    273.0840    512.3110      1.0000      1.7985      0.0500      1.0000      0.0000      0.5000      0.9000           0
1.0             C                  2000.0000      0.0000    273.0840    512.3110      1.0000      1.0165      0.0500      1.0000      0.0000      0.5000      0.9000           0
1.0             C                  2000.0000      0.0000    273.0840    512.3110      1.0000      0.5320      0.0500      1.0000      0.3000      0.5000      0.2000           0
1.0             C                  2000.0000      0.0000    273.0840    512.3110      1.0000      0.6523      0.0500      1.0000      0.3000      0.5000      0.2000           0
1.0             C                  2000.0000      0.0000    273.0840    512.3110      1.0000      0.2919      0.0500      1.0000      0.9500      0.9000      0.0100           0
1.0             C                  2000.0000      0.0000    273.0840    512.3110      1.0000      0.2990      0.0500      1.0000      0.9500      0.9000      0.0100           0
1.0             C                  2000.0000      0.0000    273.0840    512.3110      1.0000      0.4353      0.0500      1.0000      0.3000      0.9000      0.2000           0
1.0             C                  2000.0000      0.0000    273.0840    512.3110      1.0000      0.8080      0.0500      1.0000      0.0000      0.5000      0.9000           0
1.0             C                  2000.0000      0.0000    273.0840    512.3110      1.0000      0.5202      0.0500      1.0000      0.3000      0.9000      0.2000           0
1.0             C                  2000.0000      0.0000    273.0840    512.3110      1.0000      0.8885      0.0500      1.0000      0.0000      0.5000      0.9000           0
1.0             C                  2000.0000      0.0000    273.0840    512.3110      1.0000      0.1694      0.0500      1.0000      0.9500      0.5000      0.0100           0
1.0             C                  2000.0000      0.0000    273.0840    512.3110      1.0000      1.6137      0.0500      1.0000      0.0000      0.5000      0.9000           0
1.0             C                  2000.0000      0.0000    273.0840    512.3110      1.0000      1.0638      0.0500      1.0000      0.0000      0.5000      0.9000           0
1.0             C                  2000.0000      0.0000    273.0840    512.3110      1.0000      0.3637      0.0500      1.0000      0.3000      0.5000      0.2000           0
1.0             C                  2000.0000      0.0000    273.0840    512.3110      1.0000      0.3834      0.0500      1.0000      0.3000      0.5000      0.2000           0
1.0             C                  2000.0000      0.0000    273.0840    512.3110      1.0000      0.3637      0.0500      1.0000      0.3000      0.5000      0.2000           0
1.0             C                  2000.0000      0.0000    273.0840    512.3110      1.0000      0.6904      0.0500      1.0000      0.0000      0.5000      0.9000           0
1.0             C                  2000.0000      0.0000    273.0840    512.3110      1.0000      0.2033      0.0500      1.0000      0.3000      0.5000      0.2000           0
1.0             C                  2000.0000      0.0000    273.0840    512.3110      1.0000      0.2331      0.0500      1.0000      0.3000      0.5000      0.2000           0
1.0             C                  2000.0000      0.0000    273.0840    512.3110      1.0000      0.3090      0.0500      1.0000      0.3000      0.5000      0.2000           0
1.0             C                  2000.0000      0.0000    273.0840    512.3110      1.0000      1.0932      0.0500      1.0000      0.0000      0.5000      0.9000           0
1.0             C                  2000.0000      0.0000    273.0840    512.3110      1.0000      0.2458      0.0500      1.0000      0.3000      0.5000      0.2000           0
1.0             C                  2000.0000      0.0000    273.0840    512.3110      1.0000      1.0010      0.0500      1.0000      0.0000      0.5000      0.9000           0
1.0             C                  2000.0000      0.0000    273.0840    512.3110      1.0000      2.0972      0.0500      1.0000      0.0000      0.0500      0.9000           0
1.0             C                  2000.0000      0.0000    273.0840    512.3110      1.0000      0.4997      0.0500      1.0000      0.3000      0.5000      0.2000           0
1.0             C                  2000.0000      0.0000    273.0840    512.3110      0.2500      0.6502      0.0500      1.0000      0.3000      0.5000      0.2000           0
1.0             C                  2000.0000      0.0000    273.0840    512.3110      1.0000      1.2577      0.0500      1.0000      0.0000      0.5000      0.9000           0
1.0             C                  2000.0000      0.0000    273.0840    512.3110      0.2500      0.2021      0.0500      1.0000      0.3000      0.5000      0.2000           0
1.0             C                  2000.0000      0.0000    273.0840    512.3110      1.0000      0.6127      0.0500      1.0000      0.3000      0.5000      0.2000           0
1.0             C                  2000.0000      0.0000    273.0840    512.3110      1.0000      0.8996      0.0500      1.0000      0.0000      0.5000      0.9000           0
1.0             C                  2000.0000      0.0000    273.0840    512.3110      1.0000      0.4778      0.0500      1.0000      0.3000      0.5000      0.2000           0
1.0             C                  2000.0000      0.0000    273.0840    512.3110      1.0000      1.8631      0.0500      1.0000      0.0000      0.0500      0.9000           0
1.0             C                  2000.0000      0.0000    273.0840    512.3110      1.0000      1.9141      0.0500      1.0000      0.0000      0.5000      0.9000           0
1.0             C                  2000.0000      0.0000    273.0840    512.3110      1.0000      0.7848      0.0500      1.0000      0.0000      0.5000      0.9000           0
1.0             C                  2000.0000      0.0000    273.0840    512.3110      1.0000      0.2308      0.0500      1.0000      0.3000      0.5000      0.2000           0
1.0             C                  2000.0000      0.0000    273.0840    512.3110      1.0000      0.1811      0.0500      1.0000      0.9500      0.5000      0.0100           0
1.0             C                  2000.0000      0.0000    273.0840    512.3110      1.0000      0.4150      0.0500      1.0000      0.3000      0.5000      0.2000           0
1.0             C                  2000.0000      0.0000    273.0840    512.3110      1.0000      1.6124      0.0500      1.0000      0.0000      0.5000      0.9000           0
1.0             C                  2000.0000      0.0000    273.0840    512.3110      1.0000      1.2236      0.0500      1.0000      0.0000      0.5000      0.9000           0
1.0             C                  2000.0000      0.0000    273.0840    512.3110      1.0000      5.9193      0.0500      1.0000      0.0000      0.0500      0.9000           0
1.0             C                  2000.0000      0.0000    273.0840    512.3110      1.0000      0.2543      0.0500      1.0000      0.3000      0.5000      0.2000           0
1.0             C                  2000.0000      0.0000    273.0840    512.3110      1.0000      3.0482      0.0500      1.0000      0.0000      0.0500      0.9000           0
1.0             C                  2000.0000      0.0000    273.0840    512.3110      1.0000      1.0398      0.0500      1.0000      0.0000      0.5000      0.9000           0
1.0             C                  2000.0000      0.0000    273.0840    512.3110      0.2500      0.2167      0.0500      1.0000      0.3000      0.5000      0.2000           0
1.0             C                  2000.0000      0.0000    273.0840    512.3110      1.0000      0.3263      0.0500      1.0000      0.3000      0.5000      0.2000           0
1.0             C                  2000.0000      0.0000    273.0840    512.3110      1.0000      2.8630      0.0500      1.0000      0.0000      0.0500      0.9000           0
1.0             C                  2000.0000      0.0000    273.0840    512.3110      1.0000      0.6889      0.0500      1.0000      0.0000      0.5000      0.9000           0
1.0             C                  2000.0000      0.0000    273.0840    512.3110      1.0000      0.2642      0.0500      1.0000      0.3000      0.5000      0.2000           0
1.0             C                  2000.0000      0.0000    273.0840    512.3110      1.0000      0.4655      0.0500      1.0000      0.3000      0.5000      0.2000           0
1.0             C                  2000.0000      0.0000    273.0840    512.3110      1.0000      1.2555      0.0500      1.0000      0.0000      0.5000      0.9000           0
1.0             C                  2000.0000      0.0000    273.0840    512.3110      1.0000      0.2445      0.0500      1.0000      0.3000      0.5000      0.2000           0
1.0             C                  2000.0000      0.0000    273.0840    512.3110      0.2500      4.7646      0.0500      1.0000      0.0000      0.0500      0.9000           0
1.0             C                  2000.0000      0.0000    273.0840    512.3110      1.0000      0.7227      0.0500      1.0000      0.0000      0.5000      0.9000           0
1.0             C                  2000.0000      0.0000    273.0840    512.3110      1.0000      1.9542      0.0500      1.0000      0.0000      0.0500      0.9000           0
1.0             C                  2000.0000      0.0000    273.0840    512.3110      1.0000      0.3982      0.0500      1.0000      0.3000      0.5000      0.2000           0
1.0             C                  2000.0000      0.0000    273.0840    512.3110      1.0000      0.6341      0.0500      1.0000      0.3000      0.5000      0.2000           0
1.0             C                  2000.0000      0.0000    273.0840    512.3110      1.0000      0.7000      0.0500      1.0000      0.0000      0.5000      0.9000           0
1.0             C                  2000.0000      0.0000    273.0840    512.3110      0.2500      2.1613      0.0500      1.0000      0.0000      0.5000      0.9000           0
1.0             C                  2000.0000      0.0000    273.0840    512.3110      1.0000      0.5234      0.0500      1.0000      0.3000      0.5000      0.2000           0
1.0             C                  2000.0000      0.0000    273.0840    512.3110      1.0000      2.4209      0.0500      1.0000      0.0000      0.0500      0.9000           0
1.0             C                  2000.0000      0.0000    273.0840    512.3110      0.2500      2.6378      0.0500      1.0000      0.0000      0.0500      0.9000           0
1.0             C                  2000.0000      0.0000    273.0840    512.3110      1.0000      1.7416      0.0500      1.0000      0.0000      0.5000      0.9000           0
1.0             C                  2000.0000      0.0000    273.0840    512.3110      0.2500      3.9615      0.0500      1.0000      0.0000      0.0500      0.9000           0
1.0             C                  2000.0000      0.0000    273.0840    512.3110      0.2500      4.8788      0.0500      1.0000      0.0000      0.0500      0.9000           0
1.0             C                  2000.0000      0.0000    273.0840    512.3110      0.2500      1.8686      0.0500      1.0000      0.0000      0.0500      0.9000           0
1.0             C                  2000.0000      0.0000    273.0840    512.3110      1.0000      0.4718      0.0500      1.0000      0.3000      0.5000      0.2000           0
1.0             C                  2000.0000      0.0000    273.0840    512.3110      1.0000      0.2339      0.0500      1.0000      0.3000      0.5000      0.2000           0
1.0             C                  2000.0000      0.0000    273.0840    512.3110      1.0000      2.9705      0.0500      1.0000      0.0000      0.0500      0.9000           0
1.0             C                  2000.0000      0.0000    273.0840    512.3110      0.2500      0.7155      0.0500      1.0000      0.0000      0.5000      0.9000           0
1.0             C                  2000.0000      0.0000    273.0840    512.3110      1.0000      0.8739      0.0500      1.0000      0.0000      0.5000      0.9000           0
1.0             C                  2000.0000      0.0000    273.0840    512.3110      1.0000      1.8075      0.0500      1.0000      0.0000      0.5000      0.9000           0
1.0             C                  2000.0000      0.0000    273.0840    512.3110      1.0000      1.0911      0.0500      1.0000      0.0000      0.5000      0.9000           0
1.0             C                  2000.0000      0.0000    273.0840    512.3110      1.0000      1.5613      0.0500      1.0000      0.0000      0.5000      0.9000           0
1.0             C                  2000.0000      0.0000    273.0840    512.3110      1.0000      1.4169      0.0500      1.0000      0.0000      0.5000      0.9000           0
1.0             C                  2000.0000      0.0000    273.0840    512.3110      1.0000      0.8868      0.0500      1.0000      0.0000      0.5000      0.9000           0
1.0             C                  2000.0000      0.0000    273.0840    512.3110      0.2500      0.6369      0.0500      1.0000      0.3000      0.9000      0.2000           0
1.0             C                  2000.0000      0.0000    273.0840    512.3110      0.2500      0.2364      0.0500      1.0000      0.3000      0.5000      0.2000           0
1.0             C                  2000.0000      0.0000    273.0840    512.3110      0.2500      0.2573      0.0500      1.0000      0.9500      0.9000      0.0100           0
1.0             C                  2000.0000      0.0000    273.0840    512.3110      1.0000      4.7065      0.0500      1.0000      0.0000      0.0500      0.9000           0
1.0             C                  2000.0000      0.0000    273.0840    512.3110      0.2500      0.1451      0.0500      1.0000      0.9500      0.5000      0.0100           0
1.0             C                  2000.0000      0.0000    273.0840    512.3110      0.2500      0.0669      0.0500      1.0000      0.9500      0.5000      0.0100           0
1.0             C                  2000.0000      0.0000    273.0840    512.3110      1.0000      0.7821      0.0500      1.0000      0.0000      0.5000      0.9000           0
1.0             C                  2000.0000      0.0000    273.0840    512.3110      1.0000      0.9417      0.0500      1.0000      0.0000      0.5000      0.9000           0
1.0             C                  2000.0000      0.0000    273.0840    512.3110      1.0000      0.3212      0.0500      1.0000      0.3000      0.5000      0.2000           0
1.0             C                  2000.0000      0.0000    273.0840    512.3110      1.0000      0.2265      0.0500      1.0000      0.9500      0.9000      0.0100           0
1.0             C                  2000.0000      0.0000    273.0840    512.3110      1.0000      0.4780      0.0500      1.0000      0.3000      0.5000      0.2000           0
1.0             C                  2000.0000      0.0000    273.0840    512.3110      1.0000      0.5085      0.0500      1.0000      0.3000      0.5000      0.2000           0
1.0             C                  2000.0000      0.0000    273.0840    512.3110      1.0000      0.3586      0.0500      1.0000      0.3000      0.5000      0.2000           0
1.0             C                  2000.0000      0.0000    273.0840    512.3110      1.0000      1.3586      0.0500      1.0000      0.0000      0.5000      0.9000           0
1.0             C                  2000.0000      0.0000    273.0840    512.3110      1.0000      1.7346      0.0500      1.0000      0.0000      0.5000      0.9000           0
1.0             C                  2000.0000      0.0000    273.0840    512.3110      1.0000      1.5297      0.0500      1.0000      0.0000      0.5000      0.9000           0
1.0             C                  2000.0000      0.0000    273.0840    512.3110      1.0000      1.1420      0.0500      1.0000      0.0000      0.5000      0.9000           0
1.0             C                  2000.0000      0.0000    273.0840    512.3110      1.0000      0.6160      0.0500      1.0000      0.3000      0.5000      0.2000           0
1.0             C                  2000.0000      0.0000    273.0840    512.3110      1.0000      0.6420      0.0500      1.0000      0.3000      0.5000      0.2000           0
1.0             C                  2000.0000      0.0000    273.0840    512.3110      1.0000      0.3909      0.0500      1.0000      0.3000      0.5000      0.2000           0
1.0             C                  2000.0000      0.0000    273.0840    512.3110      1.0000      1.5639      0.0500      1.0000      0.0000      0.5000      0.9000           0
1.0             C                  2000.0000      0.0000    273.0840    512.3110      1.0000      0.5977      0.0500      1.0000      0.3000      0.5000      0.2000           0
1.0             C                  2000.0000      0.0000    273.0840    512.3110      1.0000      0.4581      0.0500      1.0000      0.3000      0.5000      0.2000           0
1.0             C                  2000.0000      0.0000    273.0840    512.3110      1.0000      0.3372      0.0500      1.0000      0.3000      0.5000      0.2000           0
1.0             C                  2000.0000      0.0000    273.0840    512.3110      1.0000      0.5533      0.0500      1.0000      0.3000      0.5000      0.2000           0
1.0             C                  2000.0000      0.0000    273.0840    512.3110      0.2500      2.3751      0.0500      1.0000      0.0000      0.0500      0.9000           0
1.0             C                  2000.0000      0.0000    273.0840    512.3110      1.0000      1.3819      0.0500      1.0000      0.0000      0.5000      0.9000           0
1.0             C                  2000.0000      0.0000    273.0840    512.3110      1.0000      1.4613      0.0500      1.0000      0.0000      0.5000      0.9000           0
1.0             C                  2000.0000      0.0000    273.0840    512.3110      1.0000      0.4852      0.0500      1.0000      0.3000      0.5000      0.2000           0
1.0             C                  2000.0000      0.0000    273.0840    512.3110      1.0000      1.8402      0.0500      1.0000      0.0000      0.0500      0.9000           0
1.0             C                  2000.0000      0.0000    273.0840    512.3110      1.0000      0.8041      0.0500      1.0000      0.0000      0.5000      0.9000           0
1.0             C                  2000.0000      0.0000    273.0840    512.3110      1.0000      1.5723      0.0500      1.0000      0.0000      0.5000      0.9000           0
1.0             C                  2000.0000      0.0000    273.0840    512.3110      0.2500      1.8827      0.0500      1.0000      0.0000      0.0500      0.9000           0
1.0             C                  2000.0000      0.0000    273.0840    512.3110      0.2500      1.0527      0.0500      1.0000      0.0000      0.5000      0.9000           0
1.0             C                  2000.0000      0.0000    273.0840    512.3110      0.2500      1.5448      0.0500      1.0000      0.0000      0.5000      0.9000           0
1.0             C                  2000.0000      0.0000    273.0840    512.3110      0.2500      0.1939      0.0500      1.0000      0.9500      0.5000      0.0100           0
1.0             C                  2000.0000      0.0000    273.0840    512.3110      0.2500      0.3926      0.0500      1.0000      0.3000      0.5000      0.2000           0
1.0             C                  2000.0000      0.0000    273.0840    512.3110      1.0000      0.9354      0.0500      1.0000      0.0000      0.5000      0.9000           0
1.0             C                  2000.0000      0.0000    273.0840    512.3110      1.0000      0.8047      0.0500      1.0000      0.0000      0.5000      0.9000           0
1.0             C                  2000.0000      0.0000    273.0840    512.3110      1.0000      0.2823      0.0500      1.0000      0.3000      0.5000      0.2000           0
1.0             C                  2000.0000      0.0000    273.0840    512.3110      0.2500      0.2812      0.0500      1.0000      0.3000      0.5000      0.2000           0
1.0             C                  2000.0000      0.0000    273.0840    512.3110      0.2500      0.2305      0.0500      1.0000      0.3000      0.5000      0.2000           0
1.0             C                  2000.0000      0.0000    273.0840    512.3110      1.0000      0.2713      0.0500      1.0000      0.3000      0.5000      0.2000           0
1.0             C                  2000.0000      0.0000    273.0840    512.3110      1.0000      3.0608      0.0500      1.0000      0.0000      0.0500      0.9000           0
1.0             C                  2000.0000      0.0000    273.0840    512.3110      1.0000      0.7293      0.0500      1.0000      0.0000      0.5000      0.9000           0
1.0             C                  2000.0000      0.0000    273.0840    512.3110      1.0000      0.1413      0.0500      1.0000      0.9500      0.5000      0.0100           0
1.0             C                  2000.0000      0.0000    273.0840    512.3110      1.0000      2.1177      0.0500      1.0000      0.0000      0.0500      0.9000           0
1.0             C                  2000.0000      0.0000    273.0840    512.3110      1.0000      0.8846      0.0500      1.0000      0.0000      0.5000      0.9000           0
1.0             C                  2000.0000      0.0000    273.0840    512.3110      1.0000      1.2141      0.0500      1.0000      0.0000      0.5000      0.9000           0
1.0             C                  2000.0000      0.0000    273.0840    512.3110      0.2500      0.6485      0.0500      1.0000      0.3000      0.5000      0.2000           0
1.0             C                  2000.0000      0.0000    273.0840    512.3110      1.0000      0.3272      0.0500      1.0000      0.3000      0.5000      0.2000           0
1.0             C                  2000.0000      0.0000    273.0840    512.3110      1.0000      0.2428      0.0500      1.0000      0.9500      0.9000      0.0100           0
1.0             C                  2000.0000      0.0000    273.0840    512.3110      1.0000      1.4466      0.0500      1.0000      0.0000      0.5000      0.9000           0
1.0             C                  2000.0000      0.0000    273.0840    512.3110      0.2500      4.8321      0.0500      1.0000      0.0000      0.0500      0.9000           0
1.0             C                  2000.0000      0.0000    273.0840    512.3110      1.0000      1.8540      0.0500      1.0000      0.0000      0.0500      0.9000           0
1.0             C                  2000.0000      0.0000    273.0840    512.3110      0.2500      2.4816      0.0500      1.0000      0.0000      0.0500      0.9000           0
1.0             C                  2000.0000      0.0000    273.0840    512.3110      1.0000      3.1447      0.0500      1.0000      0.0000      0.0500      0.9000           0
1.0             C                  2000.0000      0.0000    273.0840    512.3110      1.0000      3.7433      0.0500      1.0000      0.0000      0.0500      0.9000           0
1.0             C                  2000.0000      0.0000    273.0840    512.3110      1.0000      2.0696      0.0500      1.0000      0.0000      0.0500      0.9000           0
1.0             C                  2000.0000      0.0000    273.0840    512.3110      0.2500      3.4358      0.0500      1.0000      0.0000      0.0500      0.9000           0
1.0             C                  2000.0000      0.0000    273.0840    512.3110      0.2500      3.6517      0.0500      1.0000      0.0000      0.0500      0.9000           0
1.0             C                  2000.0000      0.0000    273.0840    512.3110      1.0000      0.1774      0.0500      1.0000      0.9500      0.5000      0.0100           0
1.0             C                  2000.0000      0.0000    273.0840    512.3110      1.0000      5.3200      0.0500      1.0000      0.0000      0.5000      0.9000           0
1.0             C                  2000.0000      0.0000    273.0840    512.3110      1.0000      3.2576      0.0500      1.0000      0.0000      0.0500      0.9000           0
1.0             C                  2000.0000      0.0000    273.0840    512.3110      1.0000      2.4805      0.0500      1.0000      0.0000      0.5000      0.9000           0
1.0             C                  2000.0000      0.0000    273.0840    512.3110      1.0000      1.8969      0.0500      1.0000      0.0000      0.0500      0.9000           0
1.0             C                  2000.0000      0.0000    273.0840    512.3110      1.0000      0.6300      0.0500      1.0000      0.3000      0.5000      0.2000           0
1.0             C                  2000.0000      0.0000    273.0840    512.3110      0.2500      0.4366      0.0500      1.0000      0.3000      0.5000      0.2000           0
1.0             C                  2000.0000      0.0000    273.0840    512.3110      1.0000      0.7385      0.0500      1.0000      0.0000      0.5000      0.9000           0
1.0             C                  2000.0000      0.0000    273.0840    512.3110      1.0000      0.6942      0.0500      1.0000      0.0000      0.5000      0.9000           0
1.0             C                  2000.0000      0.0000    273.0840    512.3110      1.0000      1.3240      0.0500      1.0000      0.0000      0.5000      0.9000           0
1.0             C                  2000.0000      0.0000    273.0840    512.3110      1.0000      0.7095      0.0500      1.0000      0.0000      0.5000      0.9000           0
1.0             C                  2000.0000      0.0000    273.0840    512.3110      1.0000      0.5859      0.0500      1.0000      0.3000      0.5000      0.2000           0
1.0             C                  2000.0000      0.0000    273.0840    512.3110      1.0000      1.9308      0.0500      1.0000      0.0000      0.0500      0.9000           0
1.0             C                  2000.0000      0.0000    273.0840    512.3110      0.2500      3.5793      0.0500      1.0000      0.0000      0.0500      0.9000           0
1.0             C                  2000.0000      0.0000    273.0840    512.3110      1.0000      4.6716      0.0500      1.0000      0.0000      0.0500      0.9000           0
1.0             C                  2000.0000      0.0000    273.0840    512.3110      1.0000      2.7785      0.0500      1.0000      0.0000      0.0500      0.9000           0
1.0             C                  2000.0000      0.0000    273.0840    512.3110      1.0000      0.5857      0.0500      1.0000      0.3000      0.5000      0.2000           0
1.0             C                  2000.0000      0.0000    273.0840    512.3110      1.0000      1.2198      0.0500      1.0000      0.0000      0.5000      0.9000           0
1.0             C                  2000.0000      0.0000    273.0840    512.3110      1.0000      1.4413      0.0500      1.0000      0.0000      0.5000      0.9000           0
1.0             C                  2000.0000      0.0000    273.0840    512.3110      1.0000      0.6700      0.0500      1.0000      0.3000      0.9000      0.2000           0
1.0             C                  2000.0000      0.0000    273.0840    512.3110      1.0000      0.2015      0.0500      1.0000      0.3000      0.5000      0.2000           0
1.0             C                  2000.0000      0.0000    273.0840    512.3110      1.0000      0.1852      0.0500      1.0000      0.9500      0.5000      0.0100           0
1.0             C                  2000.0000      0.0000    273.0840    512.3110      1.0000      1.4315      0.0500      1.0000      0.0000      0.5000      0.9000           0
1.0             C                  2000.0000      0.0000    273.0840    512.3110      0.2500      6.8199      0.0500      1.0000      0.0000      0.0500      0.9000           0
1.0             C                  2000.0000      0.0000    273.0840    512.3110      1.0000      7.0580      0.0500      1.0000      0.0000      0.0500      0.9000           0
1.0             C                  2000.0000      0.0000    273.0840    512.3110      1.0000      1.7467      0.0500      1.0000      0.0000      0.5000      0.9000           0
1.0             C                  2000.0000      0.0000    273.0840    512.3110      1.0000      1.4888      0.0500      1.0000      0.0000      0.5000      0.9000           0
1.0             C                  2000.0000      0.0000    273.0840    512.3110      1.0000      6.8083      0.0500      1.0000      0.0000      0.0500      0.9000           0
1.0             C                  2000.0000      0.0000    273.0840    512.3110      1.0000      0.2317      0.0500      1.0000      0.3000      0.5000      0.2000           0
1.0             C                  2000.0000      0.0000    273.0840    512.3110      1.0000      1.4819      0.0500      1.0000      0.0000      0.5000      0.9000           0
1.0             C                  2000.0000      0.0000    273.0840    512.3110      1.0000      1.6068      0.0500      1.0000      0.0000      0.5000      0.9000           0
1.0             C                  2000.0000      0.0000    273.0840    512.3110      1.0000      0.6081      0.0500      1.0000      0.3000      0.5000      0.2000           0
1.0             C                  2000.0000      0.0000    273.0840    512.3110      1.0000      0.2357      0.0500      1.0000      0.3000      0.5000      0.2000           0
1.0             C                  2000.0000      0.0000    273.0840    512.3110      1.0000      0.4059      0.0500      1.0000      0.3000      0.9000      0.2000           0
1.0             C                  2000.0000      0.0000    273.0840    512.3110      1.0000      0.7324      0.0500      1.0000      0.0000      0.5000      0.9000           0
1.0             C                  2000.0000      0.0000    273.0840    512.3110      1.0000      0.2884      0.0500      1.0000      0.3000      0.5000      0.2000           0
1.0             C                  2000.0000      0.0000    273.0840    512.3110      1.0000      0.3383      0.0500      1.0000      0.3000      0.5000      0.2000           0
1.0             C                  2000.0000      0.0000    273.0840    512.3110      1.0000      0.5577      0.0500      1.0000      0.3000      0.5000      0.2000           0
1.0             C                  2000.0000      0.0000    273.0840    512.3110      1.0000      0.6325      0.0500      1.0000      0.3000      0.5000      0.2000           0
1.0             C                  2000.0000      0.0000    273.0840    512.3110      1.0000      1.3421      0.0500      1.0000      0.0000      0.5000      0.9000           0
1.0             C                  2000.0000      0.0000    273.0840    512.3110      1.0000      1.6314      0.0500      1.0000      0.0000      0.5000      0.9000           0
1.0             C                  2000.0000      0.0000    273.0840    512.3110      1.0000      0.2479      0.0500      1.0000      0.3000      0.5000      0.2000           0
1.0             C                  2000.0000      0.0000    273.0840    512.3110      1.0000      1.2345      0.0500      1.0000      0.0000      0.5000      0.9000           0
1.0             C                  2000.0000      0.0000    273.0840    512.3110      1.0000      1.5353      0.0500      1.0000      0.0000      0.5000      0.9000           0
1.0             C                  2000.0000      0.0000    273.0840    512.3110      1.0000      0.5046      0.0500      1.0000      0.3000      0.5000      0.2000           0
1.0             C                  2000.0000      0.0000    273.0840    512.3110      1.0000      1.3004      0.0500      1.0000      0.0000      0.5000      0.9000           0
1.0             C                  2000.0000      0.0000    273.0840    512.3110      1.0000      0.5946      0.0500      1.0000      0.3000      0.5000      0.2000           0
1.0             C                  2000.0000      0.0000    273.0840    512.3110      1.0000      0.5258      0.0500      1.0000      0.3000      0.5000      0.2000           0
1.0             C                  2000.0000      0.0000    273.0840    512.3110      0.2500      2.8703      0.0500      1.0000      0.0000      0.0500      0.9000           0
1.0             C                  2000.0000      0.0000    273.0840    512.3110      0.2500      1.2398      0.0500      1.0000      0.0000      0.5000      0.9000           0
1.0             C                  2000.0000      0.0000    273.0840    512.3110      1.0000      2.2075      0.0500      1.0000      0.0000      0.0500      0.9000           0
1.0             C                  2000.0000      0.0000    273.0840    512.3110      1.0000      1.1481      0.0500      1.0000      0.0000      0.5000      0.9000           0
1.0             C                  2000.0000      0.0000    273.0840    512.3110      1.0000      0.8217      0.0500      1.0000      0.0000      0.5000      0.9000           0
1.0             C                  2000.0000      0.0000    273.0840    512.3110      1.0000      1.2643      0.0500      1.0000      0.0000      0.5000      0.9000           0
1.0             C                  2000.0000      0.0000    273.0840    512.3110      1.0000      0.5093      0.0500      1.0000      0.3000      0.5000      0.2000           0
1.0             C                  2000.0000      0.0000    273.0840    512.3110      1.0000      1.7692      0.0500      1.0000      0.0000      0.5000      0.9000           0
1.0             C                  2000.0000      0.0000    273.0840    512.3110      1.0000      2.3291      0.0500      1.0000      0.0000      0.0500      0.9000           0
1.0             C                  2000.0000      0.0000    273.0840    512.3110      1.0000      0.8082      0.0500      1.0000      0.0000      0.5000      0.9000           0
1.0             C                  2000.0000      0.0000    273.0840    512.3110      1.0000      0.2805      0.0500      1.0000      0.3000      0.5000      0.2000           0
1.0             C                  2000.0000      0.0000    273.0840    512.3110      1.0000      0.9517      0.0500      1.0000      0.0000      0.5000      0.9000           0
1.0             C                  2000.0000      0.0000    273.0840    512.3110      1.0000      0.2138      0.0500      1.0000      0.3000      0.5000      0.2000           0
1.0             C                  2000.0000      0.0000    273.0840    512.3110      1.0000      0.3721      0.0500      1.0000      0.9500      0.9000      0.0100           0
1.0             C                  2000.0000      0.0000    273.0840    512.3110      1.0000      2.4225      0.0500      1.0000      0.0000      0.0500      0.9000           0
1.0             C                  2000.0000      0.0000    273.0840    512.3110      1.0000      1.4211      0.0500      1.0000      0.0000      0.5000      0.9000           0
1.0             C                  2000.0000      0.0000    273.0840    512.3110      0.2500      2.2571      0.0500      1.0000      0.0000      0.0500      0.9000           0
1.0             C                  2000.0000      0.0000    273.0840    512.3110      1.0000      1.4262      0.0500      1.0000      0.0000      0.5000      0.9000           0
1.0             C                  2000.0000      0.0000    273.0840    512.3110      1.0000      0.2543      0.0500      1.0000      0.3000      0.5000      0.2000           0
1.0             C                  2000.0000      0.0000    273.0840    512.3110      1.0000      0.2525      0.0500      1.0000      0.3000      0.5000      0.2000           0
1.0             C                  2000.0000      0.0000    273.0840    512.3110      1.0000      0.6383      0.0500      1.0000      0.3000      0.5000      0.2000           0
1.0             C                  2000.0000      0.0000    273.0840    512.3110      1.0000      0.6042      0.0500      1.0000      0.3000      0.5000      0.2000           0
1.0             C                  2000.0000      0.0000    273.0840    512.3110      1.0000      0.5525      0.0500      1.0000      0.3000      0.5000      0.2000           0
1.0             C                  2000.0000      0.0000    273.0840    512.3110      1.0000      1.4430      0.0500      1.0000      0.0000      0.5000      0.9000           0
1.0             C                  2000.0000      0.0000    273.0840    512.3110      1.0000      0.8163      0.0500      1.0000      0.0000      0.5000      0.9000           0
1.0             C                  2000.0000      0.0000    273.0840    512.3110      1.0000      0.8509      0.0500      1.0000      0.0000      0.5000      0.9000           0
1.0             C                  2000.0000      0.0000    273.0840    512.3110      1.0000      0.6508      0.0500      1.0000      0.3000      0.5000      0.2000           0
1.0             C                  2000.0000      0.0000    273.0840    512.3110      1.0000      0.8180      0.0500      1.0000      0.0000      0.5000      0.9000           0
1.0             C                  2000.0000      0.0000    273.0840    512.3110      1.0000      1.5652      0.0500      1.0000      0.0000      0.5000      0.9000           0
1.0             C                  2000.0000      0.0000    273.0840    512.3110      0.2500      5.4455      0.0500      1.0000      0.0000      0.0500      0.9000           0
1.0             C                  2000.0000      0.0000    273.0840    512.3110      1.0000      1.6008      0.0500      1.0000      0.0000      0.5000      0.9000           0
1.0             C                  2000.0000      0.0000    273.0840    512.3110      1.0000      0.5285      0.0500      1.0000      0.3000      0.5000      0.2000           0
1.0             C                  2000.0000      0.0000    273.0840    512.3110      1.0000      1.0086      0.0500      1.0000      0.0000      0.5000      0.9000           0
1.0             C                  2000.0000      0.0000    273.0840    512.3110      1.0000      1.1840      0.0500      1.0000      0.0000      0.5000      0.9000           0
1.0             C                  2000.0000      0.0000    273.0840    512.3110      1.0000      0.9920      0.0500      1.0000      0.0000      0.5000      0.9000           0
1.0             C                  2000.0000      0.0000    273.0840    512.3110      1.0000      1.1541      0.0500      1.0000      0.0000      0.5000      0.9000           0
1.0             C                  2000.0000      0.0000    273.0840    512.3110      0.2500      1.7859      0.0500      1.0000      0.0000      0.5000      0.9000           0
1.0             C                  2000.0000      0.0000    273.0840    512.3110      1.0000      1.2557      0.0500      1.0000      0.0000      0.5000      0.9000           0
1.0             C                  2000.0000      0.0000    273.0840    512.3110      0.2500      3.4519      0.0500      1.0000      0.0000      0.0500      0.9000           0
1.0             C                  2000.0000      0.0000    273.0840    512.3110      1.0000      0.3820      0.0500      1.0000      0.3000      0.5000      0.2000           0
1.0             C                  2000.0000      0.0000    273.0840    512.3110      0.2500      0.6265      0.0500      1.0000      0.3000      0.5000      0.2000           0
1.0             C                  2000.0000      0.0000    273.0840    512.3110      1.0000      0.8086      0.0500      1.0000      0.0000      0.5000      0.9000           0
1.0             C                  2000.0000      0.0000    273.0840    512.3110      1.0000      1.8423      0.0500      1.0000      0.0000      0.0500      0.9000           0
1.0             C                  2000.0000      0.0000    273.0840    512.3110      0.2500      3.0626      0.0500      1.0000      0.0000      0.0500      0.9000           0
1.0             C                  2000.0000      0.0000    273.0840    512.3110      1.0000      0.5517      0.0500      1.0000      0.3000      0.5000      0.2000           0
1.0             C                  2000.0000      0.0000    273.0840    512.3110      1.0000      1.1308      0.0500      1.0000      0.0000      0.5000      0.9000           0
1.0             C                  2000.0000      0.0000    273.0840    512.3110      1.0000      0.4542      0.0500      1.0000      0.3000      0.9000      0.2000           0
1.0             C                  2000.0000      0.0000    273.0840    512.3110      0.2500      3.3656      0.0500      1.0000      0.0000      0.0500      0.9000           0
1.0             C                  2000.0000      0.0000    273.0840    512.3110      1.0000      1.3094      0.0500      1.0000      0.0000      0.5000      0.9000           0
1.0             C                  2000.0000      0.0000    273.0840    512.3110      0.2500      0.1705      0.0500      1.0000      0.9500      0.5000      0.0100           0
1.0             C                  2000.0000      0.0000    273.0840    512.3110      0.2500      0.2728      0.0500      1.0000      0.3000      0.5000      0.2000           0
1.0             C                  2000.0000      0.0000    273.0840    512.3110      1.0000      0.2525      0.0500      1.0000      0.3000      0.5000      0.2000           0
1.0             C                  2000.0000      0.0000    273.0840    512.3110      1.0000      1.2285      0.0500      1.0000      0.0000      0.5000      0.9000           0
1.0             C                  2000.0000      0.0000    273.0840    512.3110      1.0000      0.3681      0.0500      1.0000      0.3000      0.5000      0.2000           0
1.0             C                  2000.0000      0.0000    273.0840    512.3110      0.2500      5.8731      0.0500      1.0000      0.0000      0.0500      0.9000           0
1.0             C                  2000.0000      0.0000    273.0840    512.3110      1.0000      0.2793      0.0500      1.0000      0.3000      0.5000      0.2000           0
1.0             C                  2000.0000      0.0000    273.0840    512.3110      1.0000      1.5061      0.0500      1.0000      0.0000      0.5000      0.9000           0
1.0             C                  2000.0000      0.0000    273.0840    512.3110      1.0000      0.4804      0.0500      1.0000      0.3000      0.5000      0.2000           0
1.0             C                  2000.0000      0.0000    273.0840    512.3110      1.0000      0.3510      0.0500      1.0000      0.3000      0.5000      0.2000           0
1.0             C                  2000.0000      0.0000    273.0840    512.3110      1.0000      0.3607      0.0500      1.0000      0.3000      0.5000      0.2000           0
1.0             C                  2000.0000      0.0000    273.0840    512.3110      1.0000      1.3557      0.0500      1.0000      0.0000      0.5000      0.9000           0
1.0             C                  2000.0000      0.0000    273.0840    512.3110      1.0000      0.5514      0.0500      1.0000      0.3000      0.5000      0.2000           0
1.0             C                  2000.0000      0.0000    273.0840    512.3110      1.0000      1.0723      0.0500      1.0000      0.0000      0.5000      0.9000           0
1.0             C                  2000.0000      0.0000    273.0840    512.3110      0.2500      3.1930      0.0500      1.0000      0.0000      0.0500      0.9000           0
1.0             C                  2000.0000      0.0000    273.0840    512.3110      1.0000      0.6002      0.0500      1.0000      0.3000      0.5000      0.2000           0
1.0             C                  2000.0000      0.0000    273.0840    512.3110      0.2500      2.8136      0.0500      1.0000      0.0000      0.0500      0.9000           0
1.0             C                  2000.0000      0.0000    273.0840    512.3110      0.2500      0.9458      0.0500      1.0000      0.0000      0.5000      0.9000           0
1.0             C                  2000.0000      0.0000    273.0840    512.3110      1.0000      1.0435      0.0500      1.0000      0.0000      0.5000      0.9000           0
1.0             C                  2000.0000      0.0000    273.0840    512.3110      1.0000      1.1313      0.0500      1.0000      0.0000      0.5000      0.9000           0
1.0             C                  2000.0000      0.0000    273.0840    512.3110      1.0000      0.2090      0.0500      1.0000      0.3000      0.5000      0.2000           0
1.0             C                  2000.0000      0.0000    273.0840    512.3110      1.0000      0.6042      0.0500      1.0000      0.3000      0.5000      0.2000           0
1.0             C                  2000.0000      0.0000    273.0840    512.3110      1.0000      0.4352      0.0500      1.0000      0.3000      0.5000      0.2000           0
1.0             C                  2000.0000      0.0000    273.0840    512.3110      0.2500      0.3128      0.0500      1.0000      0.3000      0.5000      0.2000           0
1.0             C                  2000.0000      0.0000    273.0840    512.3110      1.0000      0.1825      0.0500      1.0000      0.9500      0.9000      0.0100           0
1.0             C                  2000.0000      0.0000    273.0840    512.3110      0.2500      5.5518      0.0500      1.0000      0.0000      0.0500      0.9000           0
1.0             C                  2000.0000      0.0000    273.0840    512.3110      1.0000      0.7591      0.0500      1.0000      0.0000      0.5000      0.9000           0
1.0             C                  2000.0000      0.0000    273.0840    512.3110      1.0000      0.2580      0.0500      1.0000      0.3000      0.5000      0.2000           0
1.0             C                  2000.0000      0.0000    273.0840    512.3110      0.2500      1.7138      0.0500      1.0000      0.0000      0.5000      0.9000           0
1.0             C                  2000.0000      0.0000    273.0840    512.3110      1.0000      1.2738      0.0500      1.0000      0.0000      0.5000      0.9000           0
1.0             C                  2000.0000      0.0000    273.0840    512.3110      1.0000      1.4260      0.0500      1.0000      0.0000      0.5000      0.9000           0
1.0             C                  2000.0000      0.0000    273.0840    512.3110      1.0000      0.5379      0.0500      1.0000      0.3000      0.5000      0.2000           0
1.0             C                  2000.0000      0.0000    273.0840    512.3110      1.0000      0.5241      0.0500      1.0000      0.3000      0.5000      0.2000           0
1.0             C                  2000.0000      0.0000    273.0840    512.3110      1.0000      0.3100      0.0500      1.0000      0.3000      0.5000      0.2000           0
[...]
1.0             C                  2000.0000      0.0000    273.0840    512.3110      1.0000      1.1672      0.0500      1.0000      0.0000      0.5000      0.9000           0
1.0             C                  2000.0000      0.0000    273.0840    512.3110      1.0000      1.2043      0.0500      1.0000      0.0000      0.5000      0.9000           0
1.0             C                  2000.0000      0.0000    273.0840    512.3110      1.0000      0.4755      0.0500      1.0000      0.3000      0.5000      0.2000           0
1.0             C                  2000.0000      0.0000    273.0840    512.3110      1.0000      0.3465      0.0500      1.0000      0.3000      0.5000      0.2000           0
1.0             C                  2000.0000      0.0000    273.0840    512.3110      1.0000      0.8926      0.0500      1.0000      0.0000      0.5000      0.9000           0
1.0             C                  2000.0000      0.0000    273.0840    512.3110      1.0000      0.9003      0.0500      1.0000      0.0000      0.5000      0.9000           0
1.0             C                  2000.0000      0.0000    273.0840    512.3110      1.0000      1.7381      0.0500      1.0000      0.0000      0.5000      0.9000           0
1.0             C                  2000.0000      0.0000    273.0840    512.3110      1.0000      1.9017      0.0500      1.0000      0.0000      0.0500      0.9000           0
1.0             C                  2000.0000      0.0000    273.0840    512.3110      1.0000      2.5487      0.0500      1.0000      0.0000      0.0500      0.9000           0
1.0             C                  2000.0000      0.0000    273.0840    512.3110      1.0000      0.4918      0.0500      1.0000      0.3000      0.9000      0.2000           0
1.0             C                  2000.0000      0.0000    273.0840    512.3110      1.0000      1.1054      0.0500      1.0000      0.0000      0.5000      0.9000           0
1.0             C                  2000.0000      0.0000    273.0840    512.3110      0.2500      0.2220      0.0500      1.0000      0.3000      0.5000      0.2000           0
1.0             C                  2000.0000      0.0000    273.0840    512.3110      1.0000      0.7664      0.0500      1.0000      0.0000      0.5000      0.9000           0
1.0             C                  2000.0000      0.0000    273.0840    512.3110      0.2500      4.8660      0.0500      1.0000      0.0000      0.0500      0.9000           0
1.0             C                  2000.0000      0.0000    273.0840    512.3110      0.2500      2.7181      0.0500      1.0000      0.0000      0.0500      0.9000           0
1.0             C                  2000.0000      0.0000    273.0840    512.3110      1.0000      0.2282      0.0500      1.0000      0.3000      0.5000      0.2000           0
1.0             C                  2000.0000      0.0000    273.0840    512.3110      1.0000      0.4611      0.0500      1.0000      0.3000      0.5000      0.2000           0
1.0             C                  2000.0000      0.0000    273.0840    512.3110      1.0000      0.3033      0.0500      1.0000      0.3000      0.5000      0.2000           0
1.0             C                  2000.0000      0.0000    273.0840    512.3110      1.0000      0.8528      0.0500      1.0000      0.0000      0.5000      0.9000           0
1.0             C                  2000.0000      0.0000    273.0840    512.3110      1.0000      0.7916      0.0500      1.0000      0.0000      0.5000      0.9000           0
1.0             C                  2000.0000      0.0000    273.0840    512.3110      0.2500      5.6422      0.0500      1.0000      0.0000      0.0500      0.9000           0
1.0             C                  2000.0000      0.0000    273.0840    512.3110      1.0000      1.0599      0.0500      1.0000      0.0000      0.5000      0.9000           0
1.0             C                  2000.0000      0.0000    273.0840    512.3110      0.2500      0.9779      0.0500      1.0000      0.0000      0.5000      0.9000           0
1.0             C                  2000.0000      0.0000    273.0840    512.3110      1.0000      0.3676      0.0500      1.0000      0.3000      0.5000      0.2000           0
1.0             C                  2000.0000      0.0000    273.0840    512.3110      1.0000      0.4315      0.0500      1.0000      0.3000      0.5000      0.2000           0
1.0             C                  2000.0000      0.0000    273.0840    512.3110      1.0000      0.6772      0.0500      1.0000      0.0000      0.5000      0.9000           0
1.0             C                  2000.0000      0.0000    273.0840    512.3110      1.0000      0.3403      0.0500      1.0000      0.3000      0.5000      0.2000           0
1.0             C                  2000.0000      0.0000    273.0840    512.3110      1.0000      0.3294      0.0500      1.0000      0.3000      0.5000      0.2000           0
1.0             C                  2000.0000      0.0000    273.0840    512.3110      1.0000      0.1674      0.0500      1.0000      0.9500      0.5000      0.0100           0
1.0             C                  2000.0000      0.0000    273.0840    512.3110      1.0000      0.7760      0.0500      1.0000      0.0000      0.5000      0.9000           0
1.0             C                  2000.0000      0.0000    273.0840    512.3110      1.0000      0.3396      0.0500      1.0000      0.3000      0.5000      0.2000           0
1.0             C                  2000.0000      0.0000    273.0840    512.3110      1.0000      0.2201      0.0500      1.0000      0.3000      0.5000      0.2000           0
1.0             C                  2000.0000      0.0000    273.0840    512.3110      1.0000      0.3145      0.0500      1.0000      0.3000      0.5000      0.2000           0
1.0             C                  2000.0000      0.0000    273.0840    512.3110      1.0000      1.9459      0.0500      1.0000      0.0000      0.0500      0.9000           0
1.0             C                  2000.0000      0.0000    273.0840    512.3110      0.2500      0.6602      0.0500      1.0000      0.3000      0.5000      0.2000           0
1.0             C                  2000.0000      0.0000    273.0840    512.3110      1.0000      0.8147      0.0500      1.0000      0.0000      0.5000      0.9000           0
1.0             C                  2000.0000      0.0000    273.0840    512.3110      1.0000      0.5017      0.0500      1.0000      0.3000      0.5000      0.2000           0
1.0             C                  2000.0000      0.0000    273.0840    512.3110      1.0000      1.1535      0.0500      1.0000      0.0000      0.5000      0.9000           0
1.0             C                  2000.0000      0.0000    273.0840    512.3110      1.0000      0.9381      0.0500      1.0000      0.0000      0.5000      0.9000           0
1.0             C                  2000.0000      0.0000    273.0840    512.3110      1.0000      0.2560      0.0500      1.0000      0.3000      0.5000      0.2000           0
1.0             C                  2000.0000      0.0000    273.0840    512.3110      0.2500      0.5382      0.0500      1.0000      0.3000      0.5000      0.2000           0
1.0             C                  2000.0000      0.0000    273.0840    512.3110      1.0000      1.2786      0.0500      1.0000      0.0000      0.5000      0.9000           0
1.0             C                  2000.0000      0.0000    273.0840    512.3110      1.0000      0.7377      0.0500      1.0000      0.0000      0.5000      0.9000           0
1.0             C                  2000.0000      0.0000    273.0840    512.3110      1.0000      0.5492      0.0500      1.0000      0.3000      0.5000      0.2000           0
1.0             C                  2000.0000      0.0000    273.0840    512.3110      1.0000      0.4949      0.0500      1.0000      0.3000      0.9000      0.2000           0
1.0             C                  2000.0000      0.0000    273.0840    512.3110      1.0000      0.5635      0.0500      1.0000      0.3000      0.9000      0.2000           0
1.0             C                  2000.0000      0.0000    273.0840    512.3110      1.0000      0.7680      0.0500      1.0000      0.0000      0.5000      0.9000           0
1.0             C                  2000.0000      0.0000    273.0840    512.3110      1.0000      1.0223      0.0500      1.0000      0.0000      0.5000      0.9000           0
1.0             C                  2000.0000      0.0000    273.0840    512.3110      1.0000      5.8830      0.0500      1.0000      0.0000      0.0500      0.9000           0
1.0             C                  2000.0000      0.0000    273.0840    512.3110      1.0000      0.2854      0.0500      1.0000      0.3000      0.5000      0.2000           0
1.0             C                  2000.0000      0.0000    273.0840    512.3110      1.0000      0.6602      0.0500      1.0000      0.3000      0.5000      0.2000           0
1.0             C                  2000.0000      0.0000    273.0840    512.3110      1.0000      0.4095      0.0500      1.0000      0.3000      0.5000      0.2000           0
1.0             C                  2000.0000      0.0000    273.0840    512.3110      0.2500      3.3364      0.0500      1.0000      0.0000      0.0500      0.9000           0
1.0             C                  2000.0000      0.0000    273.0840    512.3110      0.2500      1.0466      0.0500      1.0000      0.0000      0.5000      0.9000           0
1.0             C                  2000.0000      0.0000    273.0840    512.3110      1.0000      0.4400      0.0500      1.0000      0.3000      0.9000      0.2000           0
1.0             C                  2000.0000      0.0000    273.0840    512.3110      1.0000      1.0553      0.0500      1.0000      0.0000      0.5000      0.9000           0
1.0             C                  2000.0000      0.0000    273.0840    512.3110      0.2500      2.7823      0.0500      1.0000      0.0000      0.5000      0.9000           0
1.0             C                  2000.0000      0.0000    273.0840    512.3110      1.0000      2.2691      0.0500      1.0000      0.0000      0.0500      0.9000           0
1.0             C                  2000.0000      0.0000    273.0840    512.3110      0.2500      1.4043      0.0500      1.0000      0.0000      0.5000      0.9000           0
1.0             C                  2000.0000      0.0000    273.0840    512.3110      1.0000      0.5231      0.0500      1.0000      0.3000      0.5000      0.2000           0
1.0             C                  2000.0000      0.0000    273.0840    512.3110      1.0000      0.6881      0.0500      1.0000      0.0000      0.5000      0.9000           0
1.0             C                  2000.0000      0.0000    273.0840    512.3110      1.0000      2.0553      0.0500      1.0000      0.0000      0.0500      0.9000           0
1.0             C                  2000.0000      0.0000    273.0840    512.3110      1.0000      0.9582      0.0500      1.0000      0.0000      0.5000      0.9000           0
1.0             C                  2000.0000      0.0000    273.0840    512.3110      1.0000      3.2140      0.0500      1.0000      0.0000      0.0500      0.9000           0
1.0             C                  2000.0000      0.0000    273.0840    512.3110      1.0000      1.0880      0.0500      1.0000      0.0000      0.5000      0.9000           0
1.0             C                  2000.0000      0.0000    273.0840    512.3110      1.0000      0.3887      0.0500      1.0000      0.3000      0.5000      0.2000           0
1.0             C                  2000.0000      0.0000    273.0840    512.3110      0.2500      5.2250      0.0500      1.0000      0.0000      0.0500      0.9000           0
1.0             C                  2000.0000      0.0000    273.0840    512.3110      0.2500      7.6355      0.0500      1.0000      0.0000      0.0500      0.9000           0
1.0             C                  2000.0000      0.0000    273.0840    512.3110      0.2500      3.5710      0.0500      1.0000      0.0000      0.0500      0.9000           0
1.0             C                  2000.0000      0.0000    273.0840    512.3110      1.0000      0.2034      0.0500      1.0000      0.3000      0.5000      0.2000           0
1.0             C                  2000.0000      0.0000    273.0840    512.3110      1.0000      2.1312      0.0500      1.0000      0.0000      0.0500      0.9000           0
1.0             C                  2000.0000      0.0000    273.0840    512.3110      1.0000      1.1693      0.0500      1.0000      0.0000      0.5000      0.9000           0
1.0             C                  2000.0000      0.0000    273.0840    512.3110      1.0000      0.6166      0.0500      1.0000      0.3000      0.5000      0.2000           0
1.0             C                  2000.0000      0.0000    273.0840    512.3110      1.0000      0.7706      0.0500      1.0000      0.0000      0.5000      0.9000           0
1.0             C                  2000.0000      0.0000    273.0840    512.3110      1.0000      1.3454      0.0500      1.0000      0.0000      0.5000      0.9000           0
1.0             C                  2000.0000      0.0000    273.0840    512.3110      1.0000      0.3235      0.0500      1.0000      0.3000      0.5000      0.2000           0
1.0             C                  2000.0000      0.0000    273.0840    512.3110      0.2500      0.5405      0.0500      1.0000      0.3000      0.5000      0.2000           0
1.0             C                  2000.0000      0.0000    273.0840    512.3110      0.2500      0.3344      0.0500      1.0000      0.3000      0.5000      0.2000           0
1.0             C                  2000.0000      0.0000    273.0840    512.3110      0.2500      3.5665      0.0500      1.0000      0.0000      0.0500      0.9000           0
1.0             C                  2000.0000      0.0000    273.0840    512.3110      1.0000      1.3559      0.0500      1.0000      0.0000      0.5000      0.9000           0
1.0             C                  2000.0000      0.0000    273.0840    512.3110      0.2500      3.9592      0.0500      1.0000      0.0000      0.0500      0.9000           0
1.0             C                  2000.0000      0.0000    273.0840    512.3110      1.0000      5.3272      0.0500      1.0000      0.0000      0.0500      0.9000           0
1.0             C                  2000.0000      0.0000    273.0840    512.3110      1.0000      3.5282      0.0500      1.0000      0.0000      0.0500      0.9000           0
1.0             C                  2000.0000      0.0000    273.0840    512.3110      1.0000      0.6992      0.0500      1.0000      0.0000      0.5000      0.9000           0
1.0             C                  2000.0000      0.0000    273.0840    512.3110      1.0000      2.8234      0.0500      1.0000      0.0000      0.0500      0.9000           0
1.0             C                  2000.0000      0.0000    273.0840    512.3110      1.0000      1.6788      0.0500      1.0000      0.0000      0.5000      0.9000           0
1.0             C                  2000.0000      0.0000    273.0840    512.3110      0.2500      6.7089      0.0500      1.0000      0.0000      0.0500      0.9000           0
1.0             C                  2000.0000      0.0000    273.0840    512.3110      0.2500      0.4866      0.0500      1.0000      0.3000      0.5000      0.2000           0
1.0             C                  2000.0000      0.0000    273.0840    512.3110      1.0000      0.4952      0.0500      1.0000      0.3000      0.5000      0.2000           0
1.0             C                  2000.0000      0.0000    273.0840    512.3110      0.2500      5.4425      0.0500      1.0000      0.0000      0.0500      0.9000           0
1.0             C                  2000.0000      0.0000    273.0840    512.3110      1.0000      1.2547      0.0500      1.0000      0.0000      0.5000      0.9000           0
1.0             C                  2000.0000      0.0000    273.0840    512.3110      1.0000      2.3022      0.0500      1.0000      0.0000      0.0500      0.9000           0
1.0             C                  2000.0000      0.0000    273.0840    512.3110      1.0000      1.4787      0.0500      1.0000      0.0000      0.5000      0.9000           0
1.0             C                  2000.0000      0.0000    273.0840    512.3110      1.0000      0.7469      0.0500      1.0000      0.0000      0.5000      0.9000           0
1.0             C                  2000.0000      0.0000    273.0840    512.3110      1.0000      0.4280      0.0500      1.0000      0.3000      0.5000      0.2000           0
1.0             C                  2000.0000      0.0000    273.0840    512.3110      1.0000      0.6179      0.0500      1.0000      0.3000      0.5000      0.2000           0
1.0             C                  2000.0000      0.0000    273.0840    512.3110      1.0000      0.5034      0.0500      1.0000      0.3000      0.5000      0.2000           0
1.0             C                  2000.0000      0.0000    273.0840    512.3110      1.0000      0.3939      0.0500      1.0000      0.3000      0.5000      0.2000           0
1.0             C                  2000.0000      0.0000    273.0840    512.3110      1.0000      1.1458      0.0500      1.0000      0.0000      0.5000      0.9000           0
1.0             C                  2000.0000      0.0000    273.0840    512.3110      1.0000      0.7294      0.0500      1.0000      0.0000      0.5000      0.9000           0
1.0             C                  2000.0000      0.0000    273.0840    512.3110      1.0000      0.4753      0.0500      1.0000      0.3000      0.5000      0.2000           0
1.0             C                  2000.0000      0.0000    273.0840    512.3110      1.0000      1.1977      0.0500      1.0000      0.0000      0.5000      0.9000           0
1.0             C                  2000.0000      0.0000    273.0840    512.3110      1.0000      0.6609      0.0500      1.0000      0.3000      0.5000      0.2000           0
1.0             C                  2000.0000      0.0000    273.0840    512.3110      1.0000      0.6491      0.0500      1.0000      0.3000      0.5000      0.2000           0
1.0             C                  2000.0000      0.0000    273.0840    512.3110      1.0000      0.1795      0.0500      1.0000      0.9500      0.5000      0.0100           0
1.0             C                  2000.0000      0.0000    273.0840    512.3110      1.0000      0.2057      0.0500      1.0000      0.3000      0.5000      0.2000           0
1.0             C                  2000.0000      0.0000    273.0840    512.3110      1.0000      0.4451      0.0500      1.0000      0.3000      0.9000      0.2000           0
1.0             C                  2000.0000      0.0000    273.0840    512.3110      0.2500      0.9909      0.0500      1.0000      0.0000      0.5000      0.9000           0
1.0             C                  2000.0000      0.0000    273.0840    512.3110      0.2500      0.4699      0.0500      1.0000      0.3000      0.5000      0.2000           0
1.0             C                  2000.0000      0.0000    273.0840    512.3110      1.0000      0.5868      0.0500      1.0000      0.3000      0.9000      0.2000           0
1.0             C                  2000.0000      0.0000    273.0840    512.3110      1.0000      1.1041      0.0500      1.0000      0.0000      0.5000      0.9000           0
1.0             C                  2000.0000      0.0000    273.0840    512.3110      1.0000      0.6708      0.0500      1.0000      0.3000      0.9000      0.2000           0
