120116.rec: file was written by SWATprepR R package 2024-02-13 17:38:46
20
    jday       mo    day_mo        yr    ob_typ    ob_name        flo        sed       orgn       sedp        no3       solp       chla        nh3        no2       cbod        dox       sand       silt       clay        sag        lag     gravel        tmp
       1        1         1      2002     pt_yr     120116          7          0     30.061          0          0         51          0          0         11      1.879          0          0          0          0          0          0          0          0
       1        1         1      2003     pt_yr     120116         43      0.215          0          0          0          0          0          0          0          0          0          0          0          0          0          0          0          0
       1        1         1      2004     pt_yr     120116         40        0.2          0          0          0          0          0          0          0          0          0          0          0          0          0          0          0          0
       1        1         1      2005     pt_yr     120116         44       0.22          0          0          0          0          0          0          0          0          0          0          0          0          0          0          0          0
       1        1         1      2006     pt_yr     120116         34       0.17          0          0          0          0          0          0          0          0          0          0          0          0          0          0          0          0
       1        1         1      2007     pt_yr     120116         34       0.17          0          0          0          0          0          0          0          0          0          0          0          0          0          0          0          0
       1        1         1      2008     pt_yr     120116         36       0.18          0          0          0          0          0          0          0          0          0          0          0          0          0          0          0          0
       1        1         1      2009     pt_yr     120116         33      0.165          0          0          0          0          0          0          0          0          0          0          0          0          0          0          0          0
       1        1         1      2010     pt_yr     120116         35      0.175          0      19.84      19.84          0          0          0          0          0          0          0          0          0          0          0          0          0
       1        1         1      2011     pt_yr     120116        5.9       0.03          0          0          0          0          0          0          0          0          0          0          0          0          0          0          0          0
       1        1         1      2012     pt_yr     120116        5.8      0.034     30.545       4.96       4.96         13          0          0         50      1.909          0          0          0          0          0          0          0          0
       1        1         1      2013     pt_yr     120116        6.2      0.036     26.182       1.24       1.24         36          0          0         18      1.636          0          0          0          0          0          0          0          0
       1        1         1      2014     pt_yr     120116        6.4      0.032     97.455          0          0        134          0          0         67      6.091          0          0          0          0          0          0          0          0
       1        1         1      2015     pt_yr     120116         11      0.132          0          0          0          0          0          0          0          0          0          0          0          0          0          0          0          0
       1        1         1      2016     pt_yr     120116       12.9      0.048    136.727      11.78      11.78        188          0          0         94      8.545          0          0          0          0          0          0          0          0
       1        1         1      2017     pt_yr     120116       13.8      0.128    190.545      17.98      17.98        262          0          0        131     11.909          0          0          0          0          0          0          0          0
       1        1         1      2018     pt_yr     120116       12.5      0.084     94.545      13.64      13.64        130          0          0         65      5.909          0          0          0          0          0          0          0          0
       1        1         1      2019     pt_yr     120116         13      0.052    157.091       8.06       8.06        216          0          0        108      9.818          0          0          0          0          0          0          0          0
       1        1         1      2020     pt_yr     120116         13      0.146    148.364      10.54      10.54        204          0          0        102      9.273          0          0          0          0          0          0          0          0
       1        1         1      2021     pt_yr     120116       13.5      0.179    122.182      13.64      13.64        168          0          0         84      7.636          0          0          0          0          0          0          0          0
