120104.rec: file was written by SWATprepR R package 2024-02-13 17:38:46
20
    jday       mo    day_mo        yr    ob_typ    ob_name        flo        sed       orgn       sedp        no3       solp       chla        nh3        no2       cbod        dox       sand       silt       clay        sag        lag     gravel        tmp
       1        1         1      2002     pt_yr     120104       28.3      0.325    260.848      17.36      10.64        286          0        252     16.303        538          0          0          0          0          0          0          0          0
       1        1         1      2003     pt_yr     120104         20       0.08    250.182       7.44       4.56        324          0        192     15.636        516          0          0          0          0          0          0          0          0
       1        1         1      2004     pt_yr     120104       19.8      0.059    255.515        6.2        3.8        468          0         59      15.97        527          0          0          0          0          0          0          0          0
       1        1         1      2005     pt_yr     120104       20.7      0.095    273.939      11.78       7.22        524          0         41     17.121        565          0          0          0          0          0          0          0          0
       1        1         1      2006     pt_yr     120104       21.1      0.078    160.485       3.72       2.28        263          0         68      10.03        331          0          0          0          0          0          0          0          0
       1        1         1      2007     pt_yr     120104       17.8      0.057    141.576      13.02       7.98        182          0        110      8.848        292          0          0          0          0          0          0          0          0
       1        1         1      2008     pt_yr     120104       16.4      0.072    161.455       6.82       4.18        166          0        167     10.091        333          0          0          0          0          0          0          0          0
       1        1         1      2009     pt_yr     120104       22.7      0.079    229.818      16.74      10.26        233          0        241     14.364        474          0          0          0          0          0          0          0          0
       1        1         1      2010     pt_yr     120104         21      0.126    172.121       6.82       4.18        271          0         84     10.758        355          0          0          0          0          0          0          0          0
       1        1         1      2011     pt_yr     120104         22      0.147    135.273       8.06       4.94        215          0         64      8.455        279          0          0          0          0          0          0          0          0
       1        1         1      2012     pt_yr     120104       20.2      0.093    158.545      17.36      10.64        293          0         34      9.909        327          0          0          0          0          0          0          0          0
       1        1         1      2013     pt_yr     120104       18.6      0.082    158.061       4.34       2.66        320          0          6      9.879        326          0          0          0          0          0          0          0          0
       1        1         1      2014     pt_yr     120104     10.098      0.043     62.545       6.82       4.18        117          0         12      3.909        129          0          0          0          0          0          0          0          0
       1        1         1      2015     pt_yr     120104      8.574      0.056     42.667       4.34       2.66         64          0         24      2.667         88          0          0          0          0          0          0          0          0
       1        1         1      2016     pt_yr     120104      8.465      0.034     43.636       4.34       2.66         58          0         32      2.727         90          0          0          0          0          0          0          0          0
       1        1         1      2017     pt_yr     120104      7.781      0.044     34.909       2.48       1.52         43          0         29      2.182         72          0          0          0          0          0          0          0          0
       1        1         1      2018     pt_yr     120104     13.832      0.048    136.242       7.44       4.56         57          0        224      8.515        281          0          0          0          0          0          0          0          0
       1        1         1      2019     pt_yr     120104     19.202      0.075    145.455       8.06       4.94         37          0        263      9.091        300          0          0          0          0          0          0          0          0
       1        1         1      2020     pt_yr     120104     21.215      0.129    212.848       18.6       11.4         57          0        382     13.303        439          0          0          0          0          0          0          0          0
       1        1         1      2021     pt_yr     120104      27.15      0.174     287.03      23.56      14.44        111          0        481     17.939        592          0          0          0          0          0          0          0          0
