120116.rec: file was written by SWATprepR R package 2024-10-10 15:05:28
20
    jday       mo    day_mo        yr    ob_typ    ob_name        flo        sed       orgn       sedp        no3       solp       chla        nh3        no2       cbod        dox       sand       silt       clay        sag        lag     gravel        tmp
       1        1         1      2002     pt_yr     120116          7          0     30.061          0         51          0          0         11      1.879         20          0          0          0          0          0          0          0          0
       1        1         1      2003     pt_yr     120116         43      0.215          0          0          0          0          0          0          0        378          0          0          0          0          0          0          0          0
       1        1         1      2004     pt_yr     120116         40        0.2          0          0          0          0          0          0          0        352          0          0          0          0          0          0          0          0
       1        1         1      2005     pt_yr     120116         44       0.22          0          0          0          0          0          0          0        387          0          0          0          0          0          0          0          0
       1        1         1      2006     pt_yr     120116         34       0.17          0          0          0          0          0          0          0        299          0          0          0          0          0          0          0          0
       1        1         1      2007     pt_yr     120116         34       0.17          0          0          0          0          0          0          0        299          0          0          0          0          0          0          0          0
       1        1         1      2008     pt_yr     120116         36       0.18          0          0          0          0          0          0          0        328          0          0          0          0          0          0          0          0
       1        1         1      2009     pt_yr     120116         33      0.165          0          0          0          0          0          0          0        297          0          0          0          0          0          0          0          0
       1        1         1      2010     pt_yr     120116         35      0.175          0      19.84          0      12.16          0          0          0        214          0          0          0          0          0          0          0          0
       1        1         1      2011     pt_yr     120116        5.9       0.03          0          0          0          0          0          0          0         74          0          0          0          0          0          0          0          0
       1        1         1      2012     pt_yr     120116        5.8      0.034     30.545       4.96         13       3.04          0         50      1.909         41          0          0          0          0          0          0          0          0
       1        1         1      2013     pt_yr     120116        6.2      0.036     26.182       1.24         36       0.76          0         18      1.636         37          0          0          0          0          0          0          0          0
       1        1         1      2014     pt_yr     120116        6.4      0.032     97.455          0        134          0          0         67      6.091         35          0          0          0          0          0          0          0          0
       1        1         1      2015     pt_yr     120116         11      0.132          0          0          0          0          0          0          0         50          0          0          0          0          0          0          0          0
       1        1         1      2016     pt_yr     120116       12.9      0.048    136.727      11.78        188       7.22          0         94      8.545         42          0          0          0          0          0          0          0          0
       1        1         1      2017     pt_yr     120116       13.8      0.128    190.545      17.98        262      11.02          0        131     11.909         59          0          0          0          0          0          0          0          0
       1        1         1      2018     pt_yr     120116       12.5      0.084     94.545      13.64        130       8.36          0         65      5.909         28          0          0          0          0          0          0          0          0
       1        1         1      2019     pt_yr     120116         13      0.052    157.091       8.06        216       4.94          0        108      9.818         46          0          0          0          0          0          0          0          0
       1        1         1      2020     pt_yr     120116         13      0.146    148.364      10.54        204       6.46          0        102      9.273         59          0          0          0          0          0          0          0          0
       1        1         1      2021     pt_yr     120116       13.5      0.179    122.182      13.64        168       8.36          0         84      7.636         39          0          0          0          0          0          0          0          0
