124298.rec: file was written by SWATprepR R package 2024-10-10 15:05:28
20
    jday       mo    day_mo        yr    ob_typ    ob_name        flo        sed       orgn       sedp        no3       solp       chla        nh3        no2       cbod        dox       sand       silt       clay        sag        lag     gravel        tmp
       1        1         1      2002     pt_yr     124298      208.7      1.044   1244.606     207.08       1962     126.92          0        605     77.788        897          0          0          0          0          0          0          0          0
       1        1         1      2003     pt_yr     124298      129.4      0.401   1254.788     144.46       1682      88.54          0        906     78.424        531          0          0          0          0          0          0          0          0
       1        1         1      2004     pt_yr     124298      163.8      0.393    897.455     141.98       1212      87.02          0        639     56.091        819          0          0          0          0          0          0          0          0
       1        1         1      2005     pt_yr     124298      181.2      0.616   1010.424     190.96       1269     117.04          0        815     63.152        797          0          0          0          0          0          0          0          0
       1        1         1      2006     pt_yr     124298      220.7      0.772   1476.848     191.58       1567     117.42          0       1479     92.303        905          0          0          0          0          0          0          0          0
       1        1         1      2007     pt_yr     124298      182.2      0.547   1484.121        124       1986         76          0       1075     92.758        619          0          0          0          0          0          0          0          0
       1        1         1      2008     pt_yr     124298      163.2       0.62   1076.364     141.36       1665      86.64          0        555     67.273        555          0          0          0          0          0          0          0          0
       1        1         1      2009     pt_yr     124298      202.3       0.91   1147.636     150.66       2023      92.34          0        344     71.727        647          0          0          0          0          0          0          0          0
       1        1         1      2010     pt_yr     124298        169      0.811    909.576      94.24       1268      57.76          0        608     56.848        507          0          0          0          0          0          0          0          0
       1        1         1      2011     pt_yr     124298        136       0.68    725.333     101.06       1156      61.94          0        340     45.333        381          0          0          0          0          0          0          0          0
       1        1         1      2012     pt_yr     124298      139.5      0.516    845.576      94.86       1632      58.14          0        112     52.848        460          0          0          0          0          0          0          0          0
       1        1         1      2013     pt_yr     124298      200.6      0.722   1030.788     124.62       2046      76.38          0         80     64.424        662          0          0          0          0          0          0          0          0
       1        1         1      2014     pt_yr     124298      129.1      0.426    713.697      79.98       1330      49.02          0        142     44.606        452          0          0          0          0          0          0          0          0
       1        1         1      2015     pt_yr     124298     142.57       0.47    649.697      88.66       1183      54.34          0        157     40.606        456          0          0          0          0          0          0          0          0
       1        1         1      2016     pt_yr     124298    145.885      0.423    749.576      90.52       1327      55.48          0        219     46.848        467          0          0          0          0          0          0          0          0
       1        1         1      2017     pt_yr     124298    119.932       0.36     656.97       37.2       1235       22.8          0        120     41.061        456          0          0          0          0          0          0          0          0
       1        1         1      2018     pt_yr     124298     87.645      0.245    403.879       21.7        710       13.3          0        123     25.242        377          0          0          0          0          0          0          0          0
       1        1         1      2019     pt_yr     124298    141.618      0.453    679.758      70.06       1204      42.94          0        198     42.485        963          0          0          0          0          0          0          0          0
       1        1         1      2020     pt_yr     124298    166.708      0.583    921.212      41.54       1567      25.46          0        333     57.576       1217          0          0          0          0          0          0          0          0
       1        1         1      2021     pt_yr     124298      164.2      0.427    899.394       71.3       1658       43.7          0        197     56.212        969          0          0          0          0          0          0          0          0
