124298.rec: file was written by SWATprepR R package 2024-02-13 17:38:46
20
    jday       mo    day_mo        yr    ob_typ    ob_name        flo        sed       orgn       sedp        no3       solp       chla        nh3        no2       cbod        dox       sand       silt       clay        sag        lag     gravel        tmp
       1        1         1      2002     pt_yr     124298      208.7      1.044 87.9999999999999     207.08        121     126.92          0 60.4999999999999 5.49999999999999        897          0          0          0          0          0          0          0          0
       1        1         1      2003     pt_yr     124298      129.4      0.401 131.781818181818     144.46      181.2      88.54          0 90.5999999999999 8.23636363636363        531          0          0          0          0          0          0          0          0
       1        1         1      2004     pt_yr     124298      163.8      0.393 92.9454545454544     141.98      127.8      87.02          0 63.8999999999999 5.8090909090909        819          0          0          0          0          0          0          0          0
       1        1         1      2005     pt_yr     124298      181.2      0.616 118.545454545454     190.96        163     117.04          0 81.4999999999999 7.4090909090909        797          0          0          0          0          0          0          0          0
       1        1         1      2006     pt_yr     124298      220.7      0.772 215.127272727272     191.58      295.8     117.42          0      147.9 13.4454545454545        905          0          0          0          0          0          0          0          0
       1        1         1      2007     pt_yr     124298      182.2      0.547 156.363636363636        124        215         76          0      107.5 9.77272727272726        619          0          0          0          0          0          0          0          0
       1        1         1      2008     pt_yr     124298      163.2       0.62 80.7272727272726     141.36        111      86.64          0 55.4999999999999 5.04545454545454        555          0          0          0          0          0          0          0          0
       1        1         1      2009     pt_yr     124298      202.3       0.91 50.0363636363636     150.66 68.7999999999999      92.34          0       34.4 3.12727272727272        647          0          0          0          0          0          0          0          0
       1        1         1      2010     pt_yr     124298        169      0.811 88.4363636363635      94.24      121.6      57.76          0 60.7999999999999 5.52727272727272        507          0          0          0          0          0          0          0          0
       1        1         1      2011     pt_yr     124298        136       0.68 49.4545454545454     101.06 67.9999999999999      61.94          0         34 3.09090909090909        381          0          0          0          0          0          0          0          0
       1        1         1      2012     pt_yr     124298      139.5      0.516 16.2909090909091      94.86       22.4      58.14          0       11.2 1.01818181818182        460          0          0          0          0          0          0          0          0
       1        1         1      2013     pt_yr     124298      200.6      0.722 11.6363636363636     124.62         16      76.38          0 7.99999999999999 0.727272727272726        662          0          0          0          0          0          0          0          0
       1        1         1      2014     pt_yr     124298      129.1      0.426 20.6545454545454      79.98       28.4      49.02          0       14.2 1.29090909090909        452          0          0          0          0          0          0          0          0
       1        1         1      2015     pt_yr     124298     142.57       0.47 22.8363636363636      88.66       31.4      54.34          0       15.7 1.42727272727273        456          0          0          0          0          0          0          0          0
       1        1         1      2016     pt_yr     124298    145.885      0.423 31.8545454545454      90.52 43.7999999999999      55.48          0       21.9 1.99090909090909        467          0          0          0          0          0          0          0          0
       1        1         1      2017     pt_yr     124298    119.932       0.36 17.4545454545454       37.2         24       22.8          0         12 1.09090909090909        456          0          0          0          0          0          0          0          0
       1        1         1      2018     pt_yr     124298     87.645      0.245 17.8909090909091       21.7       24.6       13.3          0       12.3 1.11818181818182        377          0          0          0          0          0          0          0          0
       1        1         1      2019     pt_yr     124298    141.618      0.453       28.8      70.06       39.6      42.94          0       19.8        1.8        963          0          0          0          0          0          0          0          0
       1        1         1      2020     pt_yr     124298    166.708      0.583 48.4363636363636      41.54 66.5999999999999      25.46          0       33.3 3.02727272727272       1217          0          0          0          0          0          0          0          0
       1        1         1      2021     pt_yr     124298      164.2      0.427 28.6545454545454       71.3 39.3999999999999       43.7          0       19.7 1.79090909090909        969          0          0          0          0          0          0          0          0
