 CS12                      SWAT+ Jan 11 2024        MODULAR Rev 2024.61.0                                 
                                        zmx       usle_k       sumfc       sumul      usle_p     usle_ls        esco        epco     cn3_swf       perco     latq_co   tiledrain 
 sname           hydgrp                 (mm)                    (mm)        (mm)                                                                                     0=notile;1=tile;
HPJ29           B                  1000.0000      0.0000    167.0000    336.0855      1.0000      0.4228      0.2556      1.0000      0.3000      0.9000      0.2000           0
HPJ47           C                   790.0000      0.0000    113.5000    292.6642      1.0000      0.3967      0.2556      1.0000      0.9500      0.1000      0.0100           1
HPJ47           C                   790.0000      0.0000    113.5000    292.6642      1.0000      0.2372      0.2556      1.0000      0.9500      0.1000      0.0100           1
HPJ29           B                  1000.0000      0.0000    167.0000    336.0855      1.0000      0.5953      0.2556      1.0000      0.3000      0.9000      0.2000           0
HPJ34           B                  1500.0000      0.0000    178.2000    576.4467      1.0000      1.4364      0.2556      1.0000      0.0000      0.5000      0.9000           0
HPJ34           B                  1500.0000      0.0000    178.2000    576.4467      1.0000      1.2406      0.2556      1.0000      0.0000      0.5000      0.9000           0
HPJ37           B                   920.0000      0.0000    130.4000    335.6291      1.0000      1.3567      0.2556      1.0000      0.0000      0.5000      0.9000           0
HPJ34           B                  1500.0000      0.0000    178.2000    576.4467      1.0000      0.7195      0.2556      1.0000      0.0000      0.5000      0.9000           0
HPJ32           A                  1500.0000      0.0000    144.6000    569.0467      1.0000      0.1979      0.2556      1.0000      0.9500      0.9000      0.0100           0
HPJ29           B                  1000.0000      0.0000    167.0000    336.0855      1.0000      0.4817      0.2556      1.0000      0.3000      0.9000      0.2000           0
HPJ29           B                  1000.0000      0.0000    167.0000    336.0855      1.0000      0.6477      0.2556      1.0000      0.3000      0.9000      0.2000           0
HPJ29           B                  1000.0000      0.0000    167.0000    336.0855      1.0000      1.2583      0.2556      1.0000      0.9500      0.1000      0.0100           1
HPJ29           B                  1000.0000      0.0000    167.0000    336.0855      1.0000      0.7507      0.2556      1.0000      0.0000      0.5000      0.9000           0
HPJ29           B                  1000.0000      0.0000    167.0000    336.0855      1.0000      0.7723      0.2556      1.0000      0.0000      0.5000      0.9000           0
HPJ29           B                  1000.0000      0.0000    167.0000    336.0855      1.0000      1.1258      0.2556      1.0000      0.0000      0.5000      0.9000           0
HPJ29           B                  1000.0000      0.0000    167.0000    336.0855      1.0000      0.4425      0.2556      1.0000      0.3000      0.9000      0.2000           0
HPJ29           B                  1000.0000      0.0000    167.0000    336.0855      1.0000      0.7900      0.2556      1.0000      0.0000      0.5000      0.9000           0
HPJ29           B                  1000.0000      0.0000    167.0000    336.0855      1.0000      0.6954      0.2556      1.0000      0.0000      0.5000      0.9000           0
HPJ29           B                  1000.0000      0.0000    167.0000    336.0855      1.0000      0.9440      0.2556      1.0000      0.9500      0.1000      0.0100           1
HPJ29           B                  1000.0000      0.0000    167.0000    336.0855      1.0000      0.6617      0.2556      1.0000      0.3000      0.9000      0.2000           0
HPJ29           B                  1000.0000      0.0000    167.0000    336.0855      1.0000      1.2041      0.2556      1.0000      0.0000      0.5000      0.9000           0
HPJ29           B                  1000.0000      0.0000    167.0000    336.0855      1.0000      0.7052      0.2556      1.0000      0.0000      0.5000      0.9000           0
HPJ29           B                  1000.0000      0.0000    167.0000    336.0855      1.0000      0.7132      0.2556      1.0000      0.0000      0.5000      0.9000           0
HPJ29           B                  1000.0000      0.0000    167.0000    336.0855      1.0000      0.5433      0.2556      1.0000      0.3000      0.9000      0.2000           0
HPJ29           B                  1000.0000      0.0000    167.0000    336.0855      1.0000      0.7734      0.2556      1.0000      0.0000      0.5000      0.9000           0
HPJ29           B                  1000.0000      0.0000    167.0000    336.0855      1.0000      0.6451      0.2556      1.0000      0.3000      0.9000      0.2000           0
HPJ29           B                  1000.0000      0.0000    167.0000    336.0855      1.0000      0.7410      0.2556      1.0000      0.0000      0.5000      0.9000           0
HPJ29           B                  1000.0000      0.0000    167.0000    336.0855      1.0000      0.7041      0.2556      1.0000      0.0000      0.5000      0.9000           0
HPJ29           B                  1000.0000      0.0000    167.0000    336.0855      1.0000      0.7175      0.2556      1.0000      0.0000      0.5000      0.9000           0
HPJ29           B                  1000.0000      0.0000    167.0000    336.0855      1.0000      1.0704      0.2556      1.0000      0.0000      0.5000      0.9000           0
HPJ29           B                  1000.0000      0.0000    167.0000    336.0855      1.0000      1.8354      0.2556      1.0000      0.0000      0.5000      0.9000           0
HPJ34           B                  1500.0000      0.0000    178.2000    576.4467      1.0000      3.0405      0.2556      1.0000      0.0000      0.5000      0.9000           0
HPJ29           B                  1000.0000      0.0000    167.0000    336.0855      1.0000      0.6464      0.2556      1.0000      0.3000      0.9000      0.2000           0
HPJ29           B                  1000.0000      0.0000    167.0000    336.0855      1.0000      1.3495      0.2556      1.0000      0.9500      0.1000      0.0100           1
HPJ29           B                  1000.0000      0.0000    167.0000    336.0855      1.0000      2.5721      0.2556      1.0000      0.9500      0.1000      0.0100           1
HPJ29           B                  1000.0000      0.0000    167.0000    336.0855      1.0000      1.0068      0.2556      1.0000      0.0000      0.5000      0.9000           0
HPJ29           B                  1000.0000      0.0000    167.0000    336.0855      1.0000      1.3136      0.2556      1.0000      0.9500      0.1000      0.0100           1
HPJ29           B                  1000.0000      0.0000    167.0000    336.0855      1.0000      0.9630      0.2556      1.0000      0.0000      0.5000      0.9000           0
HPJ29           B                  1000.0000      0.0000    167.0000    336.0855      1.0000      1.9942      0.2556      1.0000      0.0000      0.5000      0.9000           0
HPJ29           B                  1000.0000      0.0000    167.0000    336.0855      1.0000      0.5643      0.2556      1.0000      0.3000      0.9000      0.2000           0
HPJ29           B                  1000.0000      0.0000    167.0000    336.0855      1.0000      0.4574      0.2556      1.0000      0.9500      0.1000      0.0100           1
HPJ29           B                  1000.0000      0.0000    167.0000    336.0855      1.0000      1.1963      0.2556      1.0000      0.0000      0.5000      0.9000           0
HPJ29           B                  1000.0000      0.0000    167.0000    336.0855      1.0000      1.3825      0.2556      1.0000      0.0000      0.5000      0.9000           0
HPJ29           B                  1000.0000      0.0000    167.0000    336.0855      1.0000      1.4112      0.2556      1.0000      0.9500      0.1000      0.0100           1
HPJ29           B                  1000.0000      0.0000    167.0000    336.0855      1.0000      0.8816      0.2556      1.0000      0.9500      0.1000      0.0100           1
HPJ50           C                  1500.0000      0.0000    211.2000    538.9276      1.0000      2.2106      0.2556      1.0000      0.0000      0.0500      0.9000           0
HPJ50           C                  1500.0000      0.0000    211.2000    538.9276      1.0000      0.7718      0.2556      1.0000      0.0000      0.5000      0.9000           0
HPJ29           B                  1000.0000      0.0000    167.0000    336.0855      1.0000      0.8046      0.2556      1.0000      0.0000      0.5000      0.9000           0
HPJ29           B                  1000.0000      0.0000    167.0000    336.0855      1.0000      1.3813      0.2556      1.0000      0.0000      0.5000      0.9000           0
HPJ50           C                  1500.0000      0.0000    211.2000    538.9276      1.0000      1.7721      0.2556      1.0000      0.9500      0.1000      0.0100           1
HPJ50           C                  1500.0000      0.0000    211.2000    538.9276      1.0000      1.1485      0.2556      1.0000      0.9500      0.1000      0.0100           1
HPJ29           B                  1000.0000      0.0000    167.0000    336.0855      1.0000      0.5265      0.2556      1.0000      0.3000      0.9000      0.2000           0
HPJ37           B                   920.0000      0.0000    130.4000    335.6291      1.0000      1.8967      0.2556      1.0000      0.0000      0.5000      0.9000           0
HPJ34           B                  1500.0000      0.0000    178.2000    576.4467      1.0000      1.0540      0.2556      1.0000      0.0000      0.5000      0.9000           0
HPJ34           B                  1500.0000      0.0000    178.2000    576.4467      1.0000      1.9748      0.2556      1.0000      0.0000      0.5000      0.9000           0
HPJ37           B                   920.0000      0.0000    130.4000    335.6291      1.0000      2.4742      0.2556      1.0000      0.0000      0.5000      0.9000           0
HPJ29           B                  1000.0000      0.0000    167.0000    336.0855      1.0000      0.8558      0.2556      1.0000      0.0000      0.5000      0.9000           0
HPJ68           D                   800.0000      0.0000     55.9000    272.4638      1.0000      0.9417      0.2556      1.0000      0.0000      0.0500      0.9000           0
HPJ29           B                  1000.0000      0.0000    167.0000    336.0855      1.0000      0.1255      0.2556      1.0000      0.9500      0.1000      0.0100           1
HPJ29           B                  1000.0000      0.0000    167.0000    336.0855      1.0000      0.1331      0.2556      1.0000      0.9500      0.1000      0.0100           1
HPJ29           B                  1000.0000      0.0000    167.0000    336.0855      1.0000      0.4991      0.2556      1.0000      0.9500      0.1000      0.0100           1
HPJ29           B                  1000.0000      0.0000    167.0000    336.0855      1.0000      0.4508      0.2556      1.0000      0.3000      0.9000      0.2000           0
HPJ47           C                   790.0000      0.0000    113.5000    292.6642      1.0000      0.1751      0.2556      1.0000      0.9500      0.5000      0.0100           0
HPJ47           C                   790.0000      0.0000    113.5000    292.6642      1.0000      0.1791      0.2556      1.0000      0.9500      0.5000      0.0100           0
HPJ47           C                   790.0000      0.0000    113.5000    292.6642      1.0000      0.6766      0.2556      1.0000      0.0000      0.5000      0.9000           0
HPJ47           C                   790.0000      0.0000    113.5000    292.6642      1.0000      0.3243      0.2556      1.0000      0.3000      0.5000      0.2000           0
HPJ47           C                   790.0000      0.0000    113.5000    292.6642      1.0000      0.3905      0.2556      1.0000      0.3000      0.5000      0.2000           0
HPJ47           C                   790.0000      0.0000    113.5000    292.6642      1.0000      0.3379      0.2556      1.0000      0.3000      0.5000      0.2000           0
HPJ29           B                  1000.0000      0.0000    167.0000    336.0855      1.0000      0.1551      0.2556      1.0000      0.9500      0.1000      0.0100           1
HPJ47           C                   790.0000      0.0000    113.5000    292.6642      1.0000      0.2382      0.2556      1.0000      0.9500      0.1000      0.0100           1
HPJ29           B                  1000.0000      0.0000    167.0000    336.0855      1.0000      0.2441      0.2556      1.0000      0.9500      0.1000      0.0100           1
HPJ29           B                  1000.0000      0.0000    167.0000    336.0855      1.0000      0.4530      0.2556      1.0000      0.3000      0.9000      0.2000           0
HPJ47           C                   790.0000      0.0000    113.5000    292.6642      1.0000      0.2341      0.2556      1.0000      0.3000      0.5000      0.2000           0
HPJ29           B                  1000.0000      0.0000    167.0000    336.0855      1.0000      0.1667      0.2556      1.0000      0.9500      0.1000      0.0100           1
HPJ29           B                  1000.0000      0.0000    167.0000    336.0855      1.0000      0.1884      0.2556      1.0000      0.9500      0.1000      0.0100           1
HPJ29           B                  1000.0000      0.0000    167.0000    336.0855      1.0000      0.2019      0.2556      1.0000      0.9500      0.1000      0.0100           1
HPJ29           B                  1000.0000      0.0000    167.0000    336.0855      1.0000      0.6028      0.2556      1.0000      0.3000      0.9000      0.2000           0
HPJ50           C                  1500.0000      0.0000    211.2000    538.9276      1.0000      0.3009      0.2556      1.0000      0.3000      0.5000      0.2000           0
HPJ50           C                  1500.0000      0.0000    211.2000    538.9276      1.0000      0.2978      0.2556      1.0000      0.9500      0.1000      0.0100           1
HPJ29           B                  1000.0000      0.0000    167.0000    336.0855      1.0000      0.2328      0.2556      1.0000      0.9500      0.9000      0.0100           0
HPJ32           A                  1500.0000      0.0000    144.6000    569.0467      1.0000      1.6097      0.2556      1.0000      0.3000      0.9000      0.2000           0
HPJ50           C                  1500.0000      0.0000    211.2000    538.9276      1.0000      0.9319      0.2556      1.0000      0.0000      0.5000      0.9000           0
HPJ50           C                  1500.0000      0.0000    211.2000    538.9276      1.0000      1.1026      0.2556      1.0000      0.9500      0.1000      0.0100           1
HPJ50           C                  1500.0000      0.0000    211.2000    538.9276      1.0000      0.6577      0.2556      1.0000      0.9500      0.1000      0.0100           1
HPJ29           B                  1000.0000      0.0000    167.0000    336.0855      1.0000      0.9722      0.2556      1.0000      0.0000      0.5000      0.9000           0
HPJ29           B                  1000.0000      0.0000    167.0000    336.0855      1.0000      0.9172      0.2556      1.0000      0.0000      0.5000      0.9000           0
HPJ29           B                  1000.0000      0.0000    167.0000    336.0855      1.0000      0.5647      0.2556      1.0000      0.3000      0.9000      0.2000           0
HPJ29           B                  1000.0000      0.0000    167.0000    336.0855      1.0000      0.7447      0.2556      1.0000      0.0000      0.5000      0.9000           0
HPJ29           B                  1000.0000      0.0000    167.0000    336.0855      1.0000      0.7635      0.2556      1.0000      0.0000      0.5000      0.9000           0
HPJ29           B                  1000.0000      0.0000    167.0000    336.0855      1.0000      0.7548      0.2556      1.0000      0.0000      0.5000      0.9000           0
HPJ32           A                  1500.0000      0.0000    144.6000    569.0467      1.0000      1.3120      0.2556      1.0000      0.3000      0.9000      0.2000           0
HPJ50           C                  1500.0000      0.0000    211.2000    538.9276      1.0000      1.3409      0.2556      1.0000      0.9500      0.1000      0.0100           1
HPJ29           B                  1000.0000      0.0000    167.0000    336.0855      1.0000      0.5143      0.2556      1.0000      0.3000      0.9000      0.2000           0
HPJ29           B                  1000.0000      0.0000    167.0000    336.0855      1.0000      0.9412      0.2556      1.0000      0.0000      0.5000      0.9000           0
HPJ29           B                  1000.0000      0.0000    167.0000    336.0855      1.0000      1.3706      0.2556      1.0000      0.0000      0.5000      0.9000           0
HPJ29           B                  1000.0000      0.0000    167.0000    336.0855      1.0000      0.7588      0.2556      1.0000      0.9500      0.1000      0.0100           1
HPJ29           B                  1000.0000      0.0000    167.0000    336.0855      1.0000      0.2703      0.2556      1.0000      0.9500      0.9000      0.0100           0
HPJ29           B                  1000.0000      0.0000    167.0000    336.0855      1.0000      1.0690      0.2556      1.0000      0.9500      0.1000      0.0100           1
HPJ29           B                  1000.0000      0.0000    167.0000    336.0855      1.0000      0.5208      0.2556      1.0000      0.3000      0.9000      0.2000           0
HPJ29           B                  1000.0000      0.0000    167.0000    336.0855      1.0000      0.2507      0.2556      1.0000      0.9500      0.9000      0.0100           0
HPJ29           B                  1000.0000      0.0000    167.0000    336.0855      1.0000      1.2525      0.2556      1.0000      0.0000      0.5000      0.9000           0
HPJ29           B                  1000.0000      0.0000    167.0000    336.0855      1.0000      0.8569      0.2556      1.0000      0.0000      0.5000      0.9000           0
HPJ50           C                  1500.0000      0.0000    211.2000    538.9276      1.0000      0.6955      0.2556      1.0000      0.0000      0.5000      0.9000           0
HPJ50           C                  1500.0000      0.0000    211.2000    538.9276      1.0000      0.6419      0.2556      1.0000      0.3000      0.5000      0.2000           0
HPJ50           C                  1500.0000      0.0000    211.2000    538.9276      1.0000      0.5900      0.2556      1.0000      0.3000      0.5000      0.2000           0
HPJ50           C                  1500.0000      0.0000    211.2000    538.9276      1.0000      0.5359      0.2556      1.0000      0.3000      0.5000      0.2000           0
HPJ50           C                  1500.0000      0.0000    211.2000    538.9276      1.0000      0.6012      0.2556      1.0000      0.3000      0.5000      0.2000           0
HPJ29           B                  1000.0000      0.0000    167.0000    336.0855      1.0000      0.6438      0.2556      1.0000      0.9500      0.1000      0.0100           1
HPJ29           B                  1000.0000      0.0000    167.0000    336.0855      1.0000      0.5378      0.2556      1.0000      0.9500      0.1000      0.0100           1
HPJ29           B                  1000.0000      0.0000    167.0000    336.0855      1.0000      0.6001      0.2556      1.0000      0.9500      0.1000      0.0100           1
HPJ29           B                  1000.0000      0.0000    167.0000    336.0855      1.0000      0.9890      0.2556      1.0000      0.9500      0.1000      0.0100           1
HPJ29           B                  1000.0000      0.0000    167.0000    336.0855      1.0000      0.7510      0.2556      1.0000      0.0000      0.5000      0.9000           0
HPJ29           B                  1000.0000      0.0000    167.0000    336.0855      1.0000      0.8264      0.2556      1.0000      0.9500      0.1000      0.0100           1
HPJ50           C                  1500.0000      0.0000    211.2000    538.9276      1.0000      0.4832      0.2556      1.0000      0.9500      0.1000      0.0100           1
HPJ29           B                  1000.0000      0.0000    167.0000    336.0855      1.0000      0.6184      0.2556      1.0000      0.9500      0.1000      0.0100           1
HPJ29           B                  1000.0000      0.0000    167.0000    336.0855      1.0000      0.8559      0.2556      1.0000      0.0000      0.5000      0.9000           0
HPJ29           B                  1000.0000      0.0000    167.0000    336.0855      1.0000      0.6258      0.2556      1.0000      0.9500      0.1000      0.0100           1
HPJ29           B                  1000.0000      0.0000    167.0000    336.0855      1.0000      0.9407      0.2556      1.0000      0.9500      0.1000      0.0100           1
HPJ29           B                  1000.0000      0.0000    167.0000    336.0855      1.0000      0.5406      0.2556      1.0000      0.9500      0.1000      0.0100           1
HPJ50           C                  1500.0000      0.0000    211.2000    538.9276      1.0000      0.9379      0.2556      1.0000      0.9500      0.1000      0.0100           1
HPJ29           B                  1000.0000      0.0000    167.0000    336.0855      1.0000      1.4163      0.2556      1.0000      0.0000      0.5000      0.9000           0
HPJ29           B                  1000.0000      0.0000    167.0000    336.0855      1.0000      0.4885      0.2556      1.0000      0.3000      0.9000      0.2000           0
HPJ29           B                  1000.0000      0.0000    167.0000    336.0855      1.0000      0.8743      0.2556      1.0000      0.9500      0.1000      0.0100           1
HPJ29           B                  1000.0000      0.0000    167.0000    336.0855      1.0000      0.9768      0.2556      1.0000      0.9500      0.1000      0.0100           1
HPJ29           B                  1000.0000      0.0000    167.0000    336.0855      1.0000      0.6652      0.2556      1.0000      0.9500      0.1000      0.0100           1
HPJ29           B                  1000.0000      0.0000    167.0000    336.0855      1.0000      0.6869      0.2556      1.0000      0.0000      0.5000      0.9000           0
HPJ29           B                  1000.0000      0.0000    167.0000    336.0855      1.0000      1.0939      0.2556      1.0000      0.0000      0.5000      0.9000           0
HPJ64           C                   800.0000      0.0000    134.7000    197.9950      1.0000      0.8998      0.2556      1.0000      0.9500      0.1000      0.0100           1
HPJ29           B                  1000.0000      0.0000    167.0000    336.0855      1.0000      0.4914      0.2556      1.0000      0.3000      0.9000      0.2000           0
HPJ29           B                  1000.0000      0.0000    167.0000    336.0855      1.0000      0.6577      0.2556      1.0000      0.3000      0.9000      0.2000           0
HPJ29           B                  1000.0000      0.0000    167.0000    336.0855      1.0000      0.6917      0.2556      1.0000      0.9500      0.1000      0.0100           1
HPJ29           B                  1000.0000      0.0000    167.0000    336.0855      1.0000      2.2644      0.2556      1.0000      0.0000      0.5000      0.9000           0
HPJ32           A                  1500.0000      0.0000    144.6000    569.0467      1.0000      0.8875      0.2556      1.0000      0.3000      0.9000      0.2000           0
HPJ29           B                  1000.0000      0.0000    167.0000    336.0855      1.0000      2.0703      0.2556      1.0000      0.0000      0.5000      0.9000           0
HPJ29           B                  1000.0000      0.0000    167.0000    336.0855      1.0000      1.5967      0.2556      1.0000      0.9500      0.1000      0.0100           1
HPJ29           B                  1000.0000      0.0000    167.0000    336.0855      1.0000      1.7826      0.2556      1.0000      0.9500      0.1000      0.0100           1
HPJ29           B                  1000.0000      0.0000    167.0000    336.0855      1.0000      1.7065      0.2556      1.0000      0.9500      0.1000      0.0100           1
HPJ50           C                  1500.0000      0.0000    211.2000    538.9276      1.0000      1.0779      0.2556      1.0000      0.9500      0.1000      0.0100           1
HPJ50           C                  1500.0000      0.0000    211.2000    538.9276      1.0000      1.2394      0.2556      1.0000      0.9500      0.1000      0.0100           1
HPJ50           C                  1500.0000      0.0000    211.2000    538.9276      1.0000      1.5741      0.2556      1.0000      0.9500      0.1000      0.0100           1
HPJ32           A                  1500.0000      0.0000    144.6000    569.0467      1.0000      0.9507      0.2556      1.0000      0.3000      0.9000      0.2000           0
HPJ29           B                  1000.0000      0.0000    167.0000    336.0855      1.0000      1.2726      0.2556      1.0000      0.9500      0.1000      0.0100           1
HPJ29           B                  1000.0000      0.0000    167.0000    336.0855      1.0000      1.4464      0.2556      1.0000      0.9500      0.1000      0.0100           1
HPJ29           B                  1000.0000      0.0000    167.0000    336.0855      1.0000      1.0446      0.2556      1.0000      0.9500      0.1000      0.0100           1
HPJ29           B                  1000.0000      0.0000    167.0000    336.0855      1.0000      1.1697      0.2556      1.0000      0.9500      0.1000      0.0100           1
HPJ29           B                  1000.0000      0.0000    167.0000    336.0855      1.0000      1.3138      0.2556      1.0000      0.0000      0.5000      0.9000           0
HPJ29           B                  1000.0000      0.0000    167.0000    336.0855      1.0000      1.2116      0.2556      1.0000      0.9500      0.1000      0.0100           1
HPJ29           B                  1000.0000      0.0000    167.0000    336.0855      1.0000      0.9463      0.2556      1.0000      0.0000      0.5000      0.9000           0
HPJ29           B                  1000.0000      0.0000    167.0000    336.0855      1.0000      0.4015      0.2556      1.0000      0.9500      0.9000      0.0100           0
HPJ29           B                  1000.0000      0.0000    167.0000    336.0855      1.0000      0.5914      0.2556      1.0000      0.9500      0.1000      0.0100           1
HPJ29           B                  1000.0000      0.0000    167.0000    336.0855      1.0000      0.7252      0.2556      1.0000      0.0000      0.5000      0.9000           0
HPJ29           B                  1000.0000      0.0000    167.0000    336.0855      1.0000      1.1537      0.2556      1.0000      0.0000      0.5000      0.9000           0
HPJ29           B                  1000.0000      0.0000    167.0000    336.0855      1.0000      0.8647      0.2556      1.0000      0.0000      0.5000      0.9000           0
HPJ29           B                  1000.0000      0.0000    167.0000    336.0855      1.0000      0.4762      0.2556      1.0000      0.3000      0.9000      0.2000           0
HPJ29           B                  1000.0000      0.0000    167.0000    336.0855      1.0000      0.7293      0.2556      1.0000      0.9500      0.1000      0.0100           1
HPJ29           B                  1000.0000      0.0000    167.0000    336.0855      1.0000      0.6968      0.2556      1.0000      0.9500      0.1000      0.0100           1
HPJ29           B                  1000.0000      0.0000    167.0000    336.0855      1.0000      0.7589      0.2556      1.0000      0.0000      0.5000      0.9000           0
HPJ29           B                  1000.0000      0.0000    167.0000    336.0855      1.0000      0.4043      0.2556      1.0000      0.3000      0.9000      0.2000           0
HPJ50           C                  1500.0000      0.0000    211.2000    538.9276      1.0000      0.5326      0.2556      1.0000      0.9500      0.1000      0.0100           1
HPJ50           C                  1500.0000      0.0000    211.2000    538.9276      1.0000      0.6360      0.2556      1.0000      0.9500      0.1000      0.0100           1
HPJ50           C                  1500.0000      0.0000    211.2000    538.9276      1.0000      0.3883      0.2556      1.0000      0.9500      0.1000      0.0100           1
HPJ29           B                  1000.0000      0.0000    167.0000    336.0855      1.0000      0.8196      0.2556      1.0000      0.0000      0.5000      0.9000           0
HPJ29           B                  1000.0000      0.0000    167.0000    336.0855      1.0000      0.7694      0.2556      1.0000      0.0000      0.5000      0.9000           0
HPJ29           B                  1000.0000      0.0000    167.0000    336.0855      1.0000      0.9316      0.2556      1.0000      0.9500      0.1000      0.0100           1
HPJ50           C                  1500.0000      0.0000    211.2000    538.9276      1.0000      1.0046      0.2556      1.0000      0.9500      0.1000      0.0100           1
HPJ50           C                  1500.0000      0.0000    211.2000    538.9276      1.0000      0.8526      0.2556      1.0000      0.9500      0.1000      0.0100           1
HPJ29           B                  1000.0000      0.0000    167.0000    336.0855      1.0000      1.2911      0.2556      1.0000      0.0000      0.5000      0.9000           0
HPJ29           B                  1000.0000      0.0000    167.0000    336.0855      1.0000      2.3466      0.2556      1.0000      0.0000      0.5000      0.9000           0
HPJ29           B                  1000.0000      0.0000    167.0000    336.0855      1.0000      2.1859      0.2556      1.0000      0.0000      0.5000      0.9000           0
HPJ29           B                  1000.0000      0.0000    167.0000    336.0855      1.0000      1.8302      0.2556      1.0000      0.0000      0.5000      0.9000           0
HPJ29           B                  1000.0000      0.0000    167.0000    336.0855      1.0000      1.1622      0.2556      1.0000      0.0000      0.5000      0.9000           0
HPJ29           B                  1000.0000      0.0000    167.0000    336.0855      1.0000      1.6360      0.2556      1.0000      0.0000      0.5000      0.9000           0
HPJ29           B                  1000.0000      0.0000    167.0000    336.0855      1.0000      1.2645      0.2556      1.0000      0.0000      0.5000      0.9000           0
HPJ29           B                  1000.0000      0.0000    167.0000    336.0855      1.0000      1.4837      0.2556      1.0000      0.0000      0.5000      0.9000           0
HPJ29           B                  1000.0000      0.0000    167.0000    336.0855      1.0000      0.8354      0.2556      1.0000      0.0000      0.5000      0.9000           0
HPJ29           B                  1000.0000      0.0000    167.0000    336.0855      1.0000      0.1010      0.2556      1.0000      0.9500      0.9000      0.0100           0
HPJ29           B                  1000.0000      0.0000    167.0000    336.0855      1.0000      0.4527      0.2556      1.0000      0.3000      0.9000      0.2000           0
HPJ29           B                  1000.0000      0.0000    167.0000    336.0855      1.0000      1.1139      0.2556      1.0000      0.0000      0.5000      0.9000           0
HPJ29           B                  1000.0000      0.0000    167.0000    336.0855      1.0000      2.6504      0.2556      1.0000      0.0000      0.5000      0.9000           0
HPJ29           B                  1000.0000      0.0000    167.0000    336.0855      1.0000      1.7224      0.2556      1.0000      0.0000      0.5000      0.9000           0
HPJ29           B                  1000.0000      0.0000    167.0000    336.0855      1.0000      0.7408      0.2556      1.0000      0.0000      0.5000      0.9000           0
HPJ29           B                  1000.0000      0.0000    167.0000    336.0855      1.0000      0.3602      0.2556      1.0000      0.9500      0.9000      0.0100           0
HPJ50           C                  1500.0000      0.0000    211.2000    538.9276      1.0000      0.2139      0.2556      1.0000      0.3000      0.5000      0.2000           0
HPJ50           C                  1500.0000      0.0000    211.2000    538.9276      1.0000      0.3025      0.2556      1.0000      0.3000      0.5000      0.2000           0
HPJ29           B                  1000.0000      0.0000    167.0000    336.0855      1.0000      1.9102      0.2556      1.0000      0.0000      0.5000      0.9000           0
HPJ29           B                  1000.0000      0.0000    167.0000    336.0855      1.0000      1.0222      0.2556      1.0000      0.0000      0.5000      0.9000           0
HPJ29           B                  1000.0000      0.0000    167.0000    336.0855      1.0000      1.5196      0.2556      1.0000      0.0000      0.5000      0.9000           0
HPJ29           B                  1000.0000      0.0000    167.0000    336.0855      1.0000      1.7639      0.2556      1.0000      0.0000      0.5000      0.9000           0
HPJ29           B                  1000.0000      0.0000    167.0000    336.0855      1.0000      1.3183      0.2556      1.0000      0.0000      0.5000      0.9000           0
HPJ29           B                  1000.0000      0.0000    167.0000    336.0855      1.0000      1.2519      0.2556      1.0000      0.0000      0.5000      0.9000           0
HPJ29           B                  1000.0000      0.0000    167.0000    336.0855      1.0000      0.7207      0.2556      1.0000      0.0000      0.5000      0.9000           0
HPJ29           B                  1000.0000      0.0000    167.0000    336.0855      1.0000      0.2928      0.2556      1.0000      0.9500      0.9000      0.0100           0
HPJ29           B                  1000.0000      0.0000    167.0000    336.0855      1.0000      0.9694      0.2556      1.0000      0.0000      0.5000      0.9000           0
HPJ29           B                  1000.0000      0.0000    167.0000    336.0855      1.0000      1.5956      0.2556      1.0000      0.0000      0.5000      0.9000           0
HPJ29           B                  1000.0000      0.0000    167.0000    336.0855      1.0000      2.0063      0.2556      1.0000      0.9500      0.1000      0.0100           1
HPJ29           B                  1000.0000      0.0000    167.0000    336.0855      1.0000      1.3528      0.2556      1.0000      0.0000      0.5000      0.9000           0
HPJ29           B                  1000.0000      0.0000    167.0000    336.0855      1.0000      1.1537      0.2556      1.0000      0.0000      0.5000      0.9000           0
HPJ29           B                  1000.0000      0.0000    167.0000    336.0855      1.0000      1.2506      0.2556      1.0000      0.9500      0.1000      0.0100           1
HPJ29           B                  1000.0000      0.0000    167.0000    336.0855      1.0000      0.9314      0.2556      1.0000      0.0000      0.5000      0.9000           0
HPJ29           B                  1000.0000      0.0000    167.0000    336.0855      1.0000      2.8208      0.2556      1.0000      0.9500      0.1000      0.0100           1
HPJ29           B                  1000.0000      0.0000    167.0000    336.0855      1.0000      2.8015      0.2556      1.0000      0.9500      0.1000      0.0100           1
HPJ29           B                  1000.0000      0.0000    167.0000    336.0855      1.0000      0.3535      0.2556      1.0000      0.9500      0.9000      0.0100           0
HPJ29           B                  1000.0000      0.0000    167.0000    336.0855      1.0000      0.1961      0.2556      1.0000      0.9500      0.9000      0.0100           0
HPJ29           B                  1000.0000      0.0000    167.0000    336.0855      1.0000      0.3719      0.2556      1.0000      0.9500      0.1000      0.0100           1
HPJ29           B                  1000.0000      0.0000    167.0000    336.0855      1.0000      0.2102      0.2556      1.0000      0.9500      0.9000      0.0100           0
HPJ47           C                   790.0000      0.0000    113.5000    292.6642      1.0000      0.3933      0.2556      1.0000      0.3000      0.5000      0.2000           0
HPJ29           B                  1000.0000      0.0000    167.0000    336.0855      1.0000      1.3506      0.2556      1.0000      0.0000      0.5000      0.9000           0
HPJ29           B                  1000.0000      0.0000    167.0000    336.0855      1.0000      2.2433      0.2556      1.0000      0.9500      0.1000      0.0100           1
HPJ29           B                  1000.0000      0.0000    167.0000    336.0855      1.0000      1.6488      0.2556      1.0000      0.9500      0.1000      0.0100           1
HPJ47           C                   790.0000      0.0000    113.5000    292.6642      1.0000      0.8814      0.2556      1.0000      0.9500      0.1000      0.0100           1
HPJ68           D                   800.0000      0.0000     55.9000    272.4638      1.0000      1.6450      0.2556      1.0000      0.9500      0.1000      0.0100           1
HPJ29           B                  1000.0000      0.0000    167.0000    336.0855      1.0000      0.3772      0.2556      1.0000      0.9500      0.9000      0.0100           0
HPJ29           B                  1000.0000      0.0000    167.0000    336.0855      1.0000      0.6290      0.2556      1.0000      0.9500      0.1000      0.0100           1
HPJ29           B                  1000.0000      0.0000    167.0000    336.0855      1.0000      0.2371      0.2556      1.0000      0.9500      0.9000      0.0100           0
HPJ29           B                  1000.0000      0.0000    167.0000    336.0855      1.0000      0.6822      0.2556      1.0000      0.0000      0.5000      0.9000           0
HPJ50           C                  1500.0000      0.0000    211.2000    538.9276      1.0000      1.5235      0.2556      1.0000      0.0000      0.5000      0.9000           0
HPJ29           B                  1000.0000      0.0000    167.0000    336.0855      1.0000      1.0042      0.2556      1.0000      0.9500      0.1000      0.0100           1
HPJ29           B                  1000.0000      0.0000    167.0000    336.0855      1.0000      1.4100      0.2556      1.0000      0.9500      0.1000      0.0100           1
HPJ29           B                  1000.0000      0.0000    167.0000    336.0855      1.0000      1.2820      0.2556      1.0000      0.0000      0.5000      0.9000           0
HPJ29           B                  1000.0000      0.0000    167.0000    336.0855      1.0000      1.4154      0.2556      1.0000      0.9500      0.1000      0.0100           1
HPJ29           B                  1000.0000      0.0000    167.0000    336.0855      1.0000      1.5907      0.2556      1.0000      0.9500      0.1000      0.0100           1
HPJ29           B                  1000.0000      0.0000    167.0000    336.0855      1.0000      1.7564      0.2556      1.0000      0.0000      0.5000      0.9000           0
HPJ29           B                  1000.0000      0.0000    167.0000    336.0855      1.0000      1.6502      0.2556      1.0000      0.9500      0.1000      0.0100           1
HPJ29           B                  1000.0000      0.0000    167.0000    336.0855      1.0000      1.4884      0.2556      1.0000      0.0000      0.5000      0.9000           0
HPJ29           B                  1000.0000      0.0000    167.0000    336.0855      1.0000      1.7964      0.2556      1.0000      0.9500      0.1000      0.0100           1
HPJ29           B                  1000.0000      0.0000    167.0000    336.0855      1.0000      0.4688      0.2556      1.0000      0.3000      0.9000      0.2000           0
HPJ29           B                  1000.0000      0.0000    167.0000    336.0855      1.0000      0.9241      0.2556      1.0000      0.0000      0.5000      0.9000           0
HPJ29           B                  1000.0000      0.0000    167.0000    336.0855      1.0000      1.3915      0.2556      1.0000      0.9500      0.1000      0.0100           1
HPJ29           B                  1000.0000      0.0000    167.0000    336.0855      1.0000      1.1487      0.2556      1.0000      0.9500      0.1000      0.0100           1
HPJ29           B                  1000.0000      0.0000    167.0000    336.0855      1.0000      0.2992      0.2556      1.0000      0.9500      0.9000      0.0100           0
HPJ29           B                  1000.0000      0.0000    167.0000    336.0855      1.0000      0.2784      0.2556      1.0000      0.9500      0.9000      0.0100           0
HPJ29           B                  1000.0000      0.0000    167.0000    336.0855      1.0000      0.7810      0.2556      1.0000      0.0000      0.5000      0.9000           0
HPJ29           B                  1000.0000      0.0000    167.0000    336.0855      1.0000      1.3684      0.2556      1.0000      0.0000      0.5000      0.9000           0
HPJ29           B                  1000.0000      0.0000    167.0000    336.0855      1.0000      0.5580      0.2556      1.0000      0.9500      0.1000      0.0100           1
HPJ29           B                  1000.0000      0.0000    167.0000    336.0855      1.0000      0.6291      0.2556      1.0000      0.3000      0.9000      0.2000           0
HPJ29           B                  1000.0000      0.0000    167.0000    336.0855      1.0000      0.4693      0.2556      1.0000      0.9500      0.1000      0.0100           1
HPJ29           B                  1000.0000      0.0000    167.0000    336.0855      1.0000      0.2732      0.2556      1.0000      0.9500      0.1000      0.0100           1
HPJ29           B                  1000.0000      0.0000    167.0000    336.0855      1.0000      0.6092      0.2556      1.0000      0.9500      0.1000      0.0100           1
HPJ29           B                  1000.0000      0.0000    167.0000    336.0855      1.0000      0.9522      0.2556      1.0000      0.0000      0.5000      0.9000           0
HPJ29           B                  1000.0000      0.0000    167.0000    336.0855      1.0000      1.4854      0.2556      1.0000      0.0000      0.5000      0.9000           0
HPJ29           B                  1000.0000      0.0000    167.0000    336.0855      1.0000      1.7102      0.2556      1.0000      0.9500      0.1000      0.0100           1
HPJ29           B                  1000.0000      0.0000    167.0000    336.0855      1.0000      0.7813      0.2556      1.0000      0.9500      0.1000      0.0100           1
HPJ29           B                  1000.0000      0.0000    167.0000    336.0855      1.0000      0.5862      0.2556      1.0000      0.3000      0.9000      0.2000           0
HPJ29           B                  1000.0000      0.0000    167.0000    336.0855      1.0000      0.7255      0.2556      1.0000      0.0000      0.5000      0.9000           0
HPJ29           B                  1000.0000      0.0000    167.0000    336.0855      1.0000      1.0597      0.2556      1.0000      0.0000      0.5000      0.9000           0
HPJ29           B                  1000.0000      0.0000    167.0000    336.0855      1.0000      0.4967      0.2556      1.0000      0.3000      0.9000      0.2000           0
HPJ29           B                  1000.0000      0.0000    167.0000    336.0855      1.0000      1.1897      0.2556      1.0000      0.0000      0.5000      0.9000           0
HPJ29           B                  1000.0000      0.0000    167.0000    336.0855      1.0000      2.8228      0.2556      1.0000      0.9500      0.1000      0.0100           1
HPJ34           B                  1500.0000      0.0000    178.2000    576.4467      1.0000      0.2389      0.2556      1.0000      0.9500      0.9000      0.0100           0
HPJ29           B                  1000.0000      0.0000    167.0000    336.0855      1.0000      1.1680      0.2556      1.0000      0.0000      0.5000      0.9000           0
HPJ29           B                  1000.0000      0.0000    167.0000    336.0855      1.0000      0.7268      0.2556      1.0000      0.0000      0.5000      0.9000           0
HPJ29           B                  1000.0000      0.0000    167.0000    336.0855      1.0000      0.6627      0.2556      1.0000      0.3000      0.9000      0.2000           0
HPJ29           B                  1000.0000      0.0000    167.0000    336.0855      1.0000      1.4119      0.2556      1.0000      0.9500      0.1000      0.0100           1
HPJ29           B                  1000.0000      0.0000    167.0000    336.0855      1.0000      0.9735      0.2556      1.0000      0.0000      0.5000      0.9000           0
HPJ29           B                  1000.0000      0.0000    167.0000    336.0855      1.0000      0.9311      0.2556      1.0000      0.0000      0.5000      0.9000           0
HPJ29           B                  1000.0000      0.0000    167.0000    336.0855      1.0000      0.5963      0.2556      1.0000      0.3000      0.9000      0.2000           0
HPJ40           B                   900.0000      0.0000    127.8000    329.0191      1.0000      2.4925      0.2556      1.0000      0.0000      0.5000      0.9000           0
HPJ29           B                  1000.0000      0.0000    167.0000    336.0855      1.0000      0.9465      0.2556      1.0000      0.0000      0.5000      0.9000           0
HPJ32           A                  1500.0000      0.0000    144.6000    569.0467      1.0000      1.4973      0.2556      1.0000      0.3000      0.9000      0.2000           0
HPJ29           B                  1000.0000      0.0000    167.0000    336.0855      1.0000      1.4895      0.2556      1.0000      0.0000      0.5000      0.9000           0
HPJ29           B                  1000.0000      0.0000    167.0000    336.0855      1.0000      0.7339      0.2556      1.0000      0.0000      0.5000      0.9000           0
HPJ29           B                  1000.0000      0.0000    167.0000    336.0855      1.0000      0.4954      0.2556      1.0000      0.3000      0.9000      0.2000           0
HPJ29           B                  1000.0000      0.0000    167.0000    336.0855      1.0000      0.3373      0.2556      1.0000      0.9500      0.1000      0.0100           1
HPJ47           C                   790.0000      0.0000    113.5000    292.6642      1.0000      0.8652      0.2556      1.0000      0.0000      0.5000      0.9000           0
HPJ29           B                  1000.0000      0.0000    167.0000    336.0855      1.0000      0.2104      0.2556      1.0000      0.9500      0.9000      0.0100           0
HPJ47           C                   790.0000      0.0000    113.5000    292.6642      1.0000      0.8280      0.2556      1.0000      0.0000      0.5000      0.9000           0
HPJ29           B                  1000.0000      0.0000    167.0000    336.0855      1.0000      0.5320      0.2556      1.0000      0.3000      0.9000      0.2000           0
HPJ29           B                  1000.0000      0.0000    167.0000    336.0855      1.0000      0.5035      0.2556      1.0000      0.9500      0.1000      0.0100           1
HPJ47           C                   790.0000      0.0000    113.5000    292.6642      1.0000      0.5893      0.2556      1.0000      0.3000      0.5000      0.2000           0
HPJ47           C                   790.0000      0.0000    113.5000    292.6642      1.0000      0.8172      0.2556      1.0000      0.0000      0.5000      0.9000           0
HPJ47           C                   790.0000      0.0000    113.5000    292.6642      1.0000      0.9330      0.2556      1.0000      0.0000      0.5000      0.9000           0
HPJ47           C                   790.0000      0.0000    113.5000    292.6642      1.0000      0.7656      0.2556      1.0000      0.0000      0.5000      0.9000           0
HPJ29           B                  1000.0000      0.0000    167.0000    336.0855      1.0000      0.6795      0.2556      1.0000      0.0000      0.5000      0.9000           0
HPJ47           C                   790.0000      0.0000    113.5000    292.6642      1.0000      0.8797      0.2556      1.0000      0.9500      0.1000      0.0100           1
HPJ47           C                   790.0000      0.0000    113.5000    292.6642      1.0000      0.8359      0.2556      1.0000      0.0000      0.5000      0.9000           0
HPJ47           C                   790.0000      0.0000    113.5000    292.6642      1.0000      1.4630      0.2556      1.0000      0.0000      0.5000      0.9000           0
HPJ47           C                   790.0000      0.0000    113.5000    292.6642      1.0000      1.2335      0.2556      1.0000      0.0000      0.5000      0.9000           0
HPJ47           C                   790.0000      0.0000    113.5000    292.6642      1.0000      0.4599      0.2556      1.0000      0.3000      0.5000      0.2000           0
HPJ47           C                   790.0000      0.0000    113.5000    292.6642      1.0000      0.6808      0.2556      1.0000      0.9500      0.1000      0.0100           1
HPJ47           C                   790.0000      0.0000    113.5000    292.6642      1.0000      1.0810      0.2556      1.0000      0.0000      0.5000      0.9000           0
HPJ47           C                   790.0000      0.0000    113.5000    292.6642      1.0000      0.9920      0.2556      1.0000      0.9500      0.1000      0.0100           1
HPJ47           C                   790.0000      0.0000    113.5000    292.6642      1.0000      1.3963      0.2556      1.0000      0.0000      0.5000      0.9000           0
HPJ47           C                   790.0000      0.0000    113.5000    292.6642      1.0000      1.5014      0.2556      1.0000      0.9500      0.1000      0.0100           1
HPJ29           B                  1000.0000      0.0000    167.0000    336.0855      1.0000      1.3946      0.2556      1.0000      0.0000      0.5000      0.9000           0
HPJ29           B                  1000.0000      0.0000    167.0000    336.0855      1.0000      0.6318      0.2556      1.0000      0.9500      0.1000      0.0100           1
HPJ50           C                  1500.0000      0.0000    211.2000    538.9276      1.0000      1.1390      0.2556      1.0000      0.9500      0.1000      0.0100           1
HPJ29           B                  1000.0000      0.0000    167.0000    336.0855      1.0000      0.8441      0.2556      1.0000      0.0000      0.5000      0.9000           0
HPJ29           B                  1000.0000      0.0000    167.0000    336.0855      1.0000      0.9985      0.2556      1.0000      0.0000      0.5000      0.9000           0
HPJ29           B                  1000.0000      0.0000    167.0000    336.0855      1.0000      0.9086      0.2556      1.0000      0.9500      0.1000      0.0100           1
HPJ50           C                  1500.0000      0.0000    211.2000    538.9276      1.0000      0.9196      0.2556      1.0000      0.9500      0.1000      0.0100           1
HPJ29           B                  1000.0000      0.0000    167.0000    336.0855      1.0000      2.7932      0.2556      1.0000      0.0000      0.5000      0.9000           0
HPJ29           B                  1000.0000      0.0000    167.0000    336.0855      1.0000      1.8445      0.2556      1.0000      0.0000      0.5000      0.9000           0
HPJ29           B                  1000.0000      0.0000    167.0000    336.0855      1.0000      1.2372      0.2556      1.0000      0.0000      0.5000      0.9000           0
HPJ29           B                  1000.0000      0.0000    167.0000    336.0855      1.0000      2.0137      0.2556      1.0000      0.9500      0.1000      0.0100           1
HPJ50           C                  1500.0000      0.0000    211.2000    538.9276      1.0000      1.4470      0.2556      1.0000      0.9500      0.1000      0.0100           1
HPJ29           B                  1000.0000      0.0000    167.0000    336.0855      1.0000      1.2710      0.2556      1.0000      0.9500      0.1000      0.0100           1
HPJ64           C                   800.0000      0.0000    134.7000    197.9950      1.0000      0.6965      0.2556      1.0000      0.9500      0.1000      0.0100           1
HPJ50           C                  1500.0000      0.0000    211.2000    538.9276      1.0000      0.8077      0.2556      1.0000      0.9500      0.1000      0.0100           1
HPJ29           B                  1000.0000      0.0000    167.0000    336.0855      1.0000      0.8719      0.2556      1.0000      0.0000      0.5000      0.9000           0
HPJ29           B                  1000.0000      0.0000    167.0000    336.0855      1.0000      0.3676      0.2556      1.0000      0.9500      0.1000      0.0100           1
HPJ29           B                  1000.0000      0.0000    167.0000    336.0855      1.0000      0.6067      0.2556      1.0000      0.3000      0.9000      0.2000           0
HPJ29           B                  1000.0000      0.0000    167.0000    336.0855      1.0000      0.5868      0.2556      1.0000      0.3000      0.9000      0.2000           0
HPJ29           B                  1000.0000      0.0000    167.0000    336.0855      1.0000      0.6067      0.2556      1.0000      0.3000      0.9000      0.2000           0
HPJ29           B                  1000.0000      0.0000    167.0000    336.0855      1.0000      2.7391      0.2556      1.0000      0.0000      0.5000      0.9000           0
HPJ29           B                  1000.0000      0.0000    167.0000    336.0855      1.0000      1.8528      0.2556      1.0000      0.0000      0.5000      0.9000           0
HPJ29           B                  1000.0000      0.0000    167.0000    336.0855      1.0000      0.8856      0.2556      1.0000      0.0000      0.5000      0.9000           0
HPJ29           B                  1000.0000      0.0000    167.0000    336.0855      1.0000      1.1460      0.2556      1.0000      0.9500      0.1000      0.0100           1
HPJ29           B                  1000.0000      0.0000    167.0000    336.0855      1.0000      0.6765      0.2556      1.0000      0.9500      0.1000      0.0100           1
HPJ29           B                  1000.0000      0.0000    167.0000    336.0855      1.0000      1.2607      0.2556      1.0000      0.0000      0.5000      0.9000           0
HPJ50           C                  1500.0000      0.0000    211.2000    538.9276      1.0000      1.4102      0.2556      1.0000      0.9500      0.1000      0.0100           1
HPJ29           B                  1000.0000      0.0000    167.0000    336.0855      1.0000      0.5960      0.2556      1.0000      0.3000      0.9000      0.2000           0
HPJ29           B                  1000.0000      0.0000    167.0000    336.0855      1.0000      0.6045      0.2556      1.0000      0.3000      0.9000      0.2000           0
HPJ29           B                  1000.0000      0.0000    167.0000    336.0855      1.0000      0.7850      0.2556      1.0000      0.9500      0.1000      0.0100           1
HPJ29           B                  1000.0000      0.0000    167.0000    336.0855      1.0000      0.4955      0.2556      1.0000      0.3000      0.9000      0.2000           0
HPJ29           B                  1000.0000      0.0000    167.0000    336.0855      1.0000      0.6005      0.2556      1.0000      0.3000      0.9000      0.2000           0
HPJ29           B                  1000.0000      0.0000    167.0000    336.0855      1.0000      0.6949      0.2556      1.0000      0.9500      0.1000      0.0100           1
HPJ29           B                  1000.0000      0.0000    167.0000    336.0855      1.0000      0.4853      0.2556      1.0000      0.3000      0.9000      0.2000           0
HPJ50           C                  1500.0000      0.0000    211.2000    538.9276      1.0000      0.9220      0.2556      1.0000      0.9500      0.1000      0.0100           1
HPJ29           B                  1000.0000      0.0000    167.0000    336.0855      1.0000      0.8142      0.2556      1.0000      0.0000      0.5000      0.9000           0
HPJ29           B                  1000.0000      0.0000    167.0000    336.0855      1.0000      0.7536      0.2556      1.0000      0.0000      0.5000      0.9000           0
HPJ29           B                  1000.0000      0.0000    167.0000    336.0855      1.0000      0.9774      0.2556      1.0000      0.9500      0.1000      0.0100           1
HPJ50           C                  1500.0000      0.0000    211.2000    538.9276      1.0000      0.8738      0.2556      1.0000      0.9500      0.1000      0.0100           1
HPJ29           B                  1000.0000      0.0000    167.0000    336.0855      1.0000      0.9577      0.2556      1.0000      0.9500      0.1000      0.0100           1
HPJ50           C                  1500.0000      0.0000    211.2000    538.9276      1.0000      0.4635      0.2556      1.0000      0.9500      0.1000      0.0100           1
HPJ50           C                  1500.0000      0.0000    211.2000    538.9276      1.0000      0.5389      0.2556      1.0000      0.9500      0.1000      0.0100           1
HPJ29           B                  1000.0000      0.0000    167.0000    336.0855      1.0000      0.7491      0.2556      1.0000      0.0000      0.5000      0.9000           0
HPJ29           B                  1000.0000      0.0000    167.0000    336.0855      1.0000      1.3526      0.2556      1.0000      0.9500      0.1000      0.0100           1
HPJ29           B                  1000.0000      0.0000    167.0000    336.0855      1.0000      0.8163      0.2556      1.0000      0.9500      0.1000      0.0100           1
HPJ29           B                  1000.0000      0.0000    167.0000    336.0855      1.0000      0.9538      0.2556      1.0000      0.0000      0.5000      0.9000           0
HPJ68           D                   800.0000      0.0000     55.9000    272.4638      1.0000      0.5649      0.2556      1.0000      0.9500      0.1000      0.0100           1
HPJ29           B                  1000.0000      0.0000    167.0000    336.0855      1.0000      1.4828      0.2556      1.0000      0.9500      0.1000      0.0100           1
HPJ29           B                  1000.0000      0.0000    167.0000    336.0855      1.0000      1.0068      0.2556      1.0000      0.0000      0.5000      0.9000           0
HPJ50           C                  1500.0000      0.0000    211.2000    538.9276      1.0000      0.9745      0.2556      1.0000      0.9500      0.1000      0.0100           1
HPJ64           C                   800.0000      0.0000    134.7000    197.9950      1.0000      0.7330      0.2556      1.0000      0.9500      0.1000      0.0100           1
HPJ50           C                  1500.0000      0.0000    211.2000    538.9276      1.0000      1.1249      0.2556      1.0000      0.9500      0.1000      0.0100           1
HPJ50           C                  1500.0000      0.0000    211.2000    538.9276      1.0000      1.1903      0.2556      1.0000      0.9500      0.1000      0.0100           1
HPJ29           B                  1000.0000      0.0000    167.0000    336.0855      1.0000      2.0451      0.2556      1.0000      0.0000      0.5000      0.9000           0
HPJ29           B                  1000.0000      0.0000    167.0000    336.0855      1.0000      2.3267      0.2556      1.0000      0.0000      0.5000      0.9000           0
HPJ29           B                  1000.0000      0.0000    167.0000    336.0855      1.0000      2.1630      0.2556      1.0000      0.9500      0.1000      0.0100           1
HPJ64           C                   800.0000      0.0000    134.7000    197.9950      1.0000      0.4545      0.2556      1.0000      0.3000      0.5000      0.2000           0
HPJ29           B                  1000.0000      0.0000    167.0000    336.0855      1.0000      1.3961      0.2556      1.0000      0.0000      0.5000      0.9000           0
HPJ29           B                  1000.0000      0.0000    167.0000    336.0855      1.0000      0.8998      0.2556      1.0000      0.0000      0.5000      0.9000           0
HPJ29           B                  1000.0000      0.0000    167.0000    336.0855      1.0000      2.0723      0.2556      1.0000      0.0000      0.5000      0.9000           0
HPJ50           C                  1500.0000      0.0000    211.2000    538.9276      1.0000      0.7548      0.2556      1.0000      0.9500      0.1000      0.0100           1
HPJ64           C                   800.0000      0.0000    134.7000    197.9950      1.0000      0.5757      0.2556      1.0000      0.9500      0.1000      0.0100           1
HPJ50           C                  1500.0000      0.0000    211.2000    538.9276      1.0000      0.4572      0.2556      1.0000      0.3000      0.5000      0.2000           0
HPJ50           C                  1500.0000      0.0000    211.2000    538.9276      1.0000      0.4132      0.2556      1.0000      0.9500      0.1000      0.0100           1
HPJ50           C                  1500.0000      0.0000    211.2000    538.9276      1.0000      0.8124      0.2556      1.0000      0.9500      0.1000      0.0100           1
HPJ50           C                  1500.0000      0.0000    211.2000    538.9276      1.0000      0.3812      0.2556      1.0000      0.9500      0.1000      0.0100           1
HPJ64           C                   800.0000      0.0000    134.7000    197.9950      1.0000      0.5297      0.2556      1.0000      0.9500      0.1000      0.0100           1
HPJ29           B                  1000.0000      0.0000    167.0000    336.0855      1.0000      1.0930      0.2556      1.0000      0.0000      0.5000      0.9000           0
HPJ50           C                  1500.0000      0.0000    211.2000    538.9276      1.0000      0.4611      0.2556      1.0000      0.9500      0.1000      0.0100           1
HPJ29           B                  1000.0000      0.0000    167.0000    336.0855      1.0000      0.9041      0.2556      1.0000      0.9500      0.1000      0.0100           1
HPJ50           C                  1500.0000      0.0000    211.2000    538.9276      1.0000      1.0488      0.2556      1.0000      0.9500      0.1000      0.0100           1
HPJ50           C                  1500.0000      0.0000    211.2000    538.9276      1.0000      0.5642      0.2556      1.0000      0.9500      0.1000      0.0100           1
HPJ29           B                  1000.0000      0.0000    167.0000    336.0855      1.0000      0.9537      0.2556      1.0000      0.0000      0.5000      0.9000           0
HPJ29           B                  1000.0000      0.0000    167.0000    336.0855      1.0000      0.7480      0.2556      1.0000      0.9500      0.1000      0.0100           1
HPJ29           B                  1000.0000      0.0000    167.0000    336.0855      1.0000      1.9247      0.2556      1.0000      0.0000      0.5000      0.9000           0
HPJ29           B                  1000.0000      0.0000    167.0000    336.0855      1.0000      0.8331      0.2556      1.0000      0.0000      0.5000      0.9000           0
HPJ29           B                  1000.0000      0.0000    167.0000    336.0855      1.0000      0.6961      0.2556      1.0000      0.9500      0.1000      0.0100           1
HPJ29           B                  1000.0000      0.0000    167.0000    336.0855      1.0000      1.6645      0.2556      1.0000      0.0000      0.5000      0.9000           0
HPJ68           D                   800.0000      0.0000     55.9000    272.4638      1.0000      1.3106      0.2556      1.0000      0.9500      0.1000      0.0100           1
HPJ29           B                  1000.0000      0.0000    167.0000    336.0855      1.0000      0.5618      0.2556      1.0000      0.3000      0.9000      0.2000           0
HPJ29           B                  1000.0000      0.0000    167.0000    336.0855      1.0000      0.1833      0.2556      1.0000      0.9500      0.9000      0.0100           0
HPJ29           B                  1000.0000      0.0000    167.0000    336.0855      1.0000      0.7332      0.2556      1.0000      0.0000      0.5000      0.9000           0
HPJ29           B                  1000.0000      0.0000    167.0000    336.0855      1.0000      0.1699      0.2556      1.0000      0.9500      0.9000      0.0100           0
HPJ29           B                  1000.0000      0.0000    167.0000    336.0855      1.0000      0.7528      0.2556      1.0000      0.0000      0.5000      0.9000           0
HPJ29           B                  1000.0000      0.0000    167.0000    336.0855      1.0000      1.0865      0.2556      1.0000      0.0000      0.5000      0.9000           0
HPJ29           B                  1000.0000      0.0000    167.0000    336.0855      1.0000      0.8620      0.2556      1.0000      0.9500      0.1000      0.0100           1
HPJ29           B                  1000.0000      0.0000    167.0000    336.0855      1.0000      2.0098      0.2556      1.0000      0.0000      0.5000      0.9000           0
HPJ50           C                  1500.0000      0.0000    211.2000    538.9276      1.0000      0.3583      0.2556      1.0000      0.3000      0.5000      0.2000           0
HPJ29           B                  1000.0000      0.0000    167.0000    336.0855      1.0000      0.9046      0.2556      1.0000      0.0000      0.5000      0.9000           0
HPJ29           B                  1000.0000      0.0000    167.0000    336.0855      1.0000      0.6684      0.2556      1.0000      0.3000      0.9000      0.2000           0
HPJ29           B                  1000.0000      0.0000    167.0000    336.0855      1.0000      0.9637      0.2556      1.0000      0.0000      0.5000      0.9000           0
HPJ29           B                  1000.0000      0.0000    167.0000    336.0855      1.0000      0.7036      0.2556      1.0000      0.0000      0.5000      0.9000           0
HPJ50           C                  1500.0000      0.0000    211.2000    538.9276      1.0000      0.7583      0.2556      1.0000      0.9500      0.1000      0.0100           1
HPJ50           C                  1500.0000      0.0000    211.2000    538.9276      1.0000      0.7531      0.2556      1.0000      0.9500      0.1000      0.0100           1
HPJ50           C                  1500.0000      0.0000    211.2000    538.9276      1.0000      1.6663      0.2556      1.0000      0.9500      0.1000      0.0100           1
HPJ50           C                  1500.0000      0.0000    211.2000    538.9276      1.0000      1.1944      0.2556      1.0000      0.9500      0.1000      0.0100           1
HPJ29           B                  1000.0000      0.0000    167.0000    336.0855      1.0000      0.8264      0.2556      1.0000      0.0000      0.5000      0.9000           0
HPJ29           B                  1000.0000      0.0000    167.0000    336.0855      1.0000      1.5963      0.2556      1.0000      0.9500      0.1000      0.0100           1
HPJ29           B                  1000.0000      0.0000    167.0000    336.0855      1.0000      0.6383      0.2556      1.0000      0.3000      0.9000      0.2000           0
HPJ29           B                  1000.0000      0.0000    167.0000    336.0855      1.0000      1.1405      0.2556      1.0000      0.0000      0.5000      0.9000           0
HPJ29           B                  1000.0000      0.0000    167.0000    336.0855      1.0000      1.0214      0.2556      1.0000      0.9500      0.1000      0.0100           1
HPJ29           B                  1000.0000      0.0000    167.0000    336.0855      1.0000      1.4579      0.2556      1.0000      0.9500      0.1000      0.0100           1
HPJ29           B                  1000.0000      0.0000    167.0000    336.0855      1.0000      0.5386      0.2556      1.0000      0.3000      0.9000      0.2000           0
HPJ29           B                  1000.0000      0.0000    167.0000    336.0855      1.0000      0.8379      0.2556      1.0000      0.0000      0.5000      0.9000           0
HPJ29           B                  1000.0000      0.0000    167.0000    336.0855      1.0000      0.9526      0.2556      1.0000      0.9500      0.1000      0.0100           1
HPJ29           B                  1000.0000      0.0000    167.0000    336.0855      1.0000      1.4929      0.2556      1.0000      0.9500      0.1000      0.0100           1
HPJ29           B                  1000.0000      0.0000    167.0000    336.0855      1.0000      0.7030      0.2556      1.0000      0.0000      0.5000      0.9000           0
HPJ29           B                  1000.0000      0.0000    167.0000    336.0855      1.0000      0.5324      0.2556      1.0000      0.3000      0.9000      0.2000           0
HPJ29           B                  1000.0000      0.0000    167.0000    336.0855      1.0000      1.4129      0.2556      1.0000      0.0000      0.5000      0.9000           0
HPJ29           B                  1000.0000      0.0000    167.0000    336.0855      1.0000      1.2126      0.2556      1.0000      0.0000      0.5000      0.9000           0
HPJ29           B                  1000.0000      0.0000    167.0000    336.0855      1.0000      1.6980      0.2556      1.0000      0.0000      0.5000      0.9000           0
HPJ29           B                  1000.0000      0.0000    167.0000    336.0855      1.0000      1.1346      0.2556      1.0000      0.9500      0.1000      0.0100           1
HPJ29           B                  1000.0000      0.0000    167.0000    336.0855      1.0000      1.1581      0.2556      1.0000      0.9500      0.1000      0.0100           1
HPJ50           C                  1500.0000      0.0000    211.2000    538.9276      1.0000      1.0483      0.2556      1.0000      0.9500      0.1000      0.0100           1
HPJ29           B                  1000.0000      0.0000    167.0000    336.0855      1.0000      1.0979      0.2556      1.0000      0.9500      0.1000      0.0100           1
HPJ29           B                  1000.0000      0.0000    167.0000    336.0855      1.0000      0.9309      0.2556      1.0000      0.0000      0.5000      0.9000           0
HPJ47           C                   790.0000      0.0000    113.5000    292.6642      1.0000      1.0592      0.2556      1.0000      0.0000      0.5000      0.9000           0
HPJ29           B                  1000.0000      0.0000    167.0000    336.0855      1.0000      0.4207      0.2556      1.0000      0.3000      0.9000      0.2000           0
HPJ29           B                  1000.0000      0.0000    167.0000    336.0855      1.0000      0.7837      0.2556      1.0000      0.9500      0.1000      0.0100           1
HPJ47           C                   790.0000      0.0000    113.5000    292.6642      1.0000      0.9591      0.2556      1.0000      0.9500      0.1000      0.0100           1
HPJ29           B                  1000.0000      0.0000    167.0000    336.0855      1.0000      0.8778      0.2556      1.0000      0.0000      0.5000      0.9000           0
HPJ29           B                  1000.0000      0.0000    167.0000    336.0855      1.0000      0.7422      0.2556      1.0000      0.0000      0.5000      0.9000           0
HPJ47           C                   790.0000      0.0000    113.5000    292.6642      1.0000      1.0649      0.2556      1.0000      0.9500      0.1000      0.0100           1
HPJ29           B                  1000.0000      0.0000    167.0000    336.0855      1.0000      0.6525      0.2556      1.0000      0.3000      0.9000      0.2000           0
HPJ29           B                  1000.0000      0.0000    167.0000    336.0855      1.0000      0.5353      0.2556      1.0000      0.3000      0.9000      0.2000           0
HPJ47           C                   790.0000      0.0000    113.5000    292.6642      1.0000      0.7435      0.2556      1.0000      0.9500      0.1000      0.0100           1
HPJ50           C                  1500.0000      0.0000    211.2000    538.9276      1.0000      0.7033      0.2556      1.0000      0.0000      0.5000      0.9000           0
HPJ29           B                  1000.0000      0.0000    167.0000    336.0855      1.0000      0.5718      0.2556      1.0000      0.3000      0.9000      0.2000           0
HPJ50           C                  1500.0000      0.0000    211.2000    538.9276      1.0000      0.4488      0.2556      1.0000      0.9500      0.1000      0.0100           1
HPJ50           C                  1500.0000      0.0000    211.2000    538.9276      1.0000      0.8236      0.2556      1.0000      0.9500      0.1000      0.0100           1
HPJ50           C                  1500.0000      0.0000    211.2000    538.9276      1.0000      0.6657      0.2556      1.0000      0.9500      0.1000      0.0100           1
HPJ47           C                   790.0000      0.0000    113.5000    292.6642      1.0000      0.5565      0.2556      1.0000      0.3000      0.5000      0.2000           0
HPJ47           C                   790.0000      0.0000    113.5000    292.6642      1.0000      0.7427      0.2556      1.0000      0.9500      0.1000      0.0100           1
HPJ47           C                   790.0000      0.0000    113.5000    292.6642      1.0000      0.6661      0.2556      1.0000      0.9500      0.1000      0.0100           1
HPJ29           B                  1000.0000      0.0000    167.0000    336.0855      1.0000      0.9990      0.2556      1.0000      0.0000      0.5000      0.9000           0
HPJ50           C                  1500.0000      0.0000    211.2000    538.9276      1.0000      1.3735      0.2556      1.0000      0.9500      0.1000      0.0100           1
HPJ29           B                  1000.0000      0.0000    167.0000    336.0855      1.0000      0.3186      0.2556      1.0000      0.9500      0.9000      0.0100           0
HPJ29           B                  1000.0000      0.0000    167.0000    336.0855      1.0000      0.7285      0.2556      1.0000      0.0000      0.5000      0.9000           0
HPJ29           B                  1000.0000      0.0000    167.0000    336.0855      1.0000      0.4763      0.2556      1.0000      0.9500      0.1000      0.0100           1
HPJ47           C                   790.0000      0.0000    113.5000    292.6642      1.0000      0.0982      0.2556      1.0000      0.9500      0.1000      0.0100           1
HPJ64           C                   800.0000      0.0000    134.7000    197.9950      1.0000      0.7238      0.2556      1.0000      0.9500      0.1000      0.0100           1
HPJ29           B                  1000.0000      0.0000    167.0000    336.0855      1.0000      1.5569      0.2556      1.0000      0.9500      0.1000      0.0100           1
HPJ29           B                  1000.0000      0.0000    167.0000    336.0855      1.0000      0.7864      0.2556      1.0000      0.0000      0.5000      0.9000           0
HPJ50           C                  1500.0000      0.0000    211.2000    538.9276      1.0000      0.7144      0.2556      1.0000      0.9500      0.1000      0.0100           1
HPJ29           B                  1000.0000      0.0000    167.0000    336.0855      1.0000      0.9096      0.2556      1.0000      0.9500      0.1000      0.0100           1
HPJ47           C                   790.0000      0.0000    113.5000    292.6642      1.0000      0.4384      0.2556      1.0000      0.3000      0.5000      0.2000           0
HPJ47           C                   790.0000      0.0000    113.5000    292.6642      1.0000      0.8704      0.2556      1.0000      0.9500      0.1000      0.0100           1
HPJ47           C                   790.0000      0.0000    113.5000    292.6642      1.0000      0.7771      0.2556      1.0000      0.9500      0.1000      0.0100           1
HPJ29           B                  1000.0000      0.0000    167.0000    336.0855      1.0000      0.4992      0.2556      1.0000      0.3000      0.9000      0.2000           0
HPJ29           B                  1000.0000      0.0000    167.0000    336.0855      1.0000      0.5361      0.2556      1.0000      0.3000      0.9000      0.2000           0
HPJ50           C                  1500.0000      0.0000    211.2000    538.9276      1.0000      0.9554      0.2556      1.0000      0.0000      0.5000      0.9000           0
HPJ29           B                  1000.0000      0.0000    167.0000    336.0855      1.0000      0.6541      0.2556      1.0000      0.9500      0.1000      0.0100           1
HPJ47           C                   790.0000      0.0000    113.5000    292.6642      1.0000      0.5133      0.2556      1.0000      0.9500      0.1000      0.0100           1
HPJ47           C                   790.0000      0.0000    113.5000    292.6642      1.0000      0.6035      0.2556      1.0000      0.9500      0.1000      0.0100           1
HPJ29           B                  1000.0000      0.0000    167.0000    336.0855      1.0000      0.5270      0.2556      1.0000      0.9500      0.1000      0.0100           1
HPJ29           B                  1000.0000      0.0000    167.0000    336.0855      1.0000      0.5842      0.2556      1.0000      0.3000      0.9000      0.2000           0
HPJ29           B                  1000.0000      0.0000    167.0000    336.0855      1.0000      0.5570      0.2556      1.0000      0.3000      0.9000      0.2000           0
HPJ29           B                  1000.0000      0.0000    167.0000    336.0855      1.0000      0.6649      0.2556      1.0000      0.9500      0.1000      0.0100           1
HPJ29           B                  1000.0000      0.0000    167.0000    336.0855      1.0000      0.7056      0.2556      1.0000      0.9500      0.1000      0.0100           1
HPJ29           B                  1000.0000      0.0000    167.0000    336.0855      1.0000      0.5417      0.2556      1.0000      0.3000      0.9000      0.2000           0
HPJ29           B                  1000.0000      0.0000    167.0000    336.0855      1.0000      0.6640      0.2556      1.0000      0.9500      0.1000      0.0100           1
HPJ29           B                  1000.0000      0.0000    167.0000    336.0855      1.0000      1.0242      0.2556      1.0000      0.9500      0.1000      0.0100           1
HPJ29           B                  1000.0000      0.0000    167.0000    336.0855      1.0000      0.6344      0.2556      1.0000      0.3000      0.9000      0.2000           0
HPJ29           B                  1000.0000      0.0000    167.0000    336.0855      1.0000      0.5271      0.2556      1.0000      0.9500      0.1000      0.0100           1
HPJ29           B                  1000.0000      0.0000    167.0000    336.0855      1.0000      0.7102      0.2556      1.0000      0.9500      0.1000      0.0100           1
HPJ29           B                  1000.0000      0.0000    167.0000    336.0855      1.0000      0.7929      0.2556      1.0000      0.0000      0.5000      0.9000           0
[...]
HPJ29           B                  1000.0000      0.0000    167.0000    336.0855      1.0000      0.8972      0.2556      1.0000      0.0000      0.5000      0.9000           0
HPJ29           B                  1000.0000      0.0000    167.0000    336.0855      1.0000      0.5285      0.2556      1.0000      0.3000      0.9000      0.2000           0
HPJ29           B                  1000.0000      0.0000    167.0000    336.0855      1.0000      0.3548      0.2556      1.0000      0.9500      0.9000      0.0100           0
HPJ29           B                  1000.0000      0.0000    167.0000    336.0855      1.0000      0.4896      0.2556      1.0000      0.3000      0.9000      0.2000           0
HPJ34           B                  1500.0000      0.0000    178.2000    576.4467      1.0000      1.1769      0.2556      1.0000      0.0000      0.5000      0.9000           0
HPJ37           B                   920.0000      0.0000    130.4000    335.6291      1.0000      1.5198      0.2556      1.0000      0.0000      0.5000      0.9000           0
HPJ29           B                  1000.0000      0.0000    167.0000    336.0855      1.0000      0.8482      0.2556      1.0000      0.0000      0.5000      0.9000           0
HPJ47           C                   790.0000      0.0000    113.5000    292.6642      1.0000      0.4315      0.2556      1.0000      0.3000      0.5000      0.2000           0
HPJ29           B                  1000.0000      0.0000    167.0000    336.0855      1.0000      0.5145      0.2556      1.0000      0.3000      0.9000      0.2000           0
HPJ71           D                  1500.0000      0.0000    304.4000    534.5680      1.0000      0.3209      0.2556      1.0000      0.3000      0.0500      0.2000           0
HPJF3           C                  1050.0000      0.0000    139.2000    446.7699      1.0000      1.3167      0.2556      1.0000      0.0000      0.5000      0.9000           0
HPJ47           C                   790.0000      0.0000    113.5000    292.6642      1.0000      0.5139      0.2556      1.0000      0.3000      0.5000      0.2000           0
HPJ68           D                   800.0000      0.0000     55.9000    272.4638      1.0000      0.6337      0.2556      1.0000      0.0000      0.0500      0.9000           0
HPJ29           B                  1000.0000      0.0000    167.0000    336.0855      1.0000      0.3829      0.2556      1.0000      0.9500      0.9000      0.0100           0
HPJ29           B                  1000.0000      0.0000    167.0000    336.0855      1.0000      0.9330      0.2556      1.0000      0.0000      0.5000      0.9000           0
HPJ29           B                  1000.0000      0.0000    167.0000    336.0855      1.0000      0.9983      0.2556      1.0000      0.0000      0.5000      0.9000           0
HPJ29           B                  1000.0000      0.0000    167.0000    336.0855      1.0000      1.4727      0.2556      1.0000      0.0000      0.5000      0.9000           0
HPJ47           C                   790.0000      0.0000    113.5000    292.6642      1.0000      0.4608      0.2556      1.0000      0.3000      0.5000      0.2000           0
HPJ29           B                  1000.0000      0.0000    167.0000    336.0855      1.0000      1.4108      0.2556      1.0000      0.0000      0.5000      0.9000           0
HPJ29           B                  1000.0000      0.0000    167.0000    336.0855      1.0000      0.6137      0.2556      1.0000      0.3000      0.9000      0.2000           0
HPJ29           B                  1000.0000      0.0000    167.0000    336.0855      1.0000      0.8777      0.2556      1.0000      0.0000      0.5000      0.9000           0
HPJ47           C                   790.0000      0.0000    113.5000    292.6642      1.0000      0.6845      0.2556      1.0000      0.0000      0.5000      0.9000           0
HPJ29           B                  1000.0000      0.0000    167.0000    336.0855      1.0000      1.0053      0.2556      1.0000      0.0000      0.5000      0.9000           0
HPJ29           B                  1000.0000      0.0000    167.0000    336.0855      1.0000      0.6531      0.2556      1.0000      0.3000      0.9000      0.2000           0
HPJ29           B                  1000.0000      0.0000    167.0000    336.0855      1.0000      0.7744      0.2556      1.0000      0.0000      0.5000      0.9000           0
HPJ29           B                  1000.0000      0.0000    167.0000    336.0855      1.0000      1.8070      0.2556      1.0000      0.0000      0.5000      0.9000           0
HPJ29           B                  1000.0000      0.0000    167.0000    336.0855      1.0000      0.7441      0.2556      1.0000      0.0000      0.5000      0.9000           0
HPJ29           B                  1000.0000      0.0000    167.0000    336.0855      1.0000      0.7658      0.2556      1.0000      0.0000      0.5000      0.9000           0
HPJ50           C                  1500.0000      0.0000    211.2000    538.9276      1.0000      0.8373      0.2556      1.0000      0.0000      0.5000      0.9000           0
HPJ50           C                  1500.0000      0.0000    211.2000    538.9276      1.0000      0.9081      0.2556      1.0000      0.0000      0.5000      0.9000           0
HPJ29           B                  1000.0000      0.0000    167.0000    336.0855      1.0000      1.0614      0.2556      1.0000      0.0000      0.5000      0.9000           0
HPJ29           B                  1000.0000      0.0000    167.0000    336.0855      1.0000      0.5817      0.2556      1.0000      0.3000      0.9000      0.2000           0
HPJ32           A                  1500.0000      0.0000    144.6000    569.0467      1.0000      2.0095      0.2556      1.0000      0.0000      0.9000      0.9000           0
HPJ29           B                  1000.0000      0.0000    167.0000    336.0855      1.0000      3.1223      0.2556      1.0000      0.0000      0.5000      0.9000           0
HPJ29           B                  1000.0000      0.0000    167.0000    336.0855      1.0000      1.3827      0.2556      1.0000      0.0000      0.5000      0.9000           0
HPJ50           C                  1500.0000      0.0000    211.2000    538.9276      1.0000      1.5415      0.2556      1.0000      0.0000      0.5000      0.9000           0
HPJ29           B                  1000.0000      0.0000    167.0000    336.0855      1.0000      0.9600      0.2556      1.0000      0.0000      0.5000      0.9000           0
HPJ29           B                  1000.0000      0.0000    167.0000    336.0855      1.0000      0.9010      0.2556      1.0000      0.0000      0.5000      0.9000           0
HPJ29           B                  1000.0000      0.0000    167.0000    336.0855      1.0000      1.1840      0.2556      1.0000      0.0000      0.5000      0.9000           0
HPJ29           B                  1000.0000      0.0000    167.0000    336.0855      1.0000      1.1194      0.2556      1.0000      0.0000      0.5000      0.9000           0
HPJ29           B                  1000.0000      0.0000    167.0000    336.0855      1.0000      1.0322      0.2556      1.0000      0.0000      0.5000      0.9000           0
HPJ29           B                  1000.0000      0.0000    167.0000    336.0855      1.0000      0.4785      0.2556      1.0000      0.3000      0.9000      0.2000           0
HPJ29           B                  1000.0000      0.0000    167.0000    336.0855      1.0000      0.5289      0.2556      1.0000      0.3000      0.9000      0.2000           0
HPJ50           C                  1500.0000      0.0000    211.2000    538.9276      1.0000      0.3688      0.2556      1.0000      0.3000      0.5000      0.2000           0
HPJ71           D                  1500.0000      0.0000    304.4000    534.5680      1.0000      1.5496      0.2556      1.0000      0.0000      0.0500      0.9000           0
HPJ50           C                  1500.0000      0.0000    211.2000    538.9276      1.0000      0.3087      0.2556      1.0000      0.3000      0.5000      0.2000           0
HPJ29           B                  1000.0000      0.0000    167.0000    336.0855      1.0000      0.4168      0.2556      1.0000      0.3000      0.9000      0.2000           0
HPJ47           C                   790.0000      0.0000    113.5000    292.6642      1.0000      0.4102      0.2556      1.0000      0.3000      0.5000      0.2000           0
HPJ47           C                   790.0000      0.0000    113.5000    292.6642      1.0000      0.3233      0.2556      1.0000      0.3000      0.5000      0.2000           0
HPJF1           B                  1300.0000      0.0000    163.7000    517.3553      1.0000      0.1296      0.2556      1.0000      0.9500      0.9000      0.0100           0
HPJ29           B                  1000.0000      0.0000    167.0000    336.0855      1.0000      1.2875      0.2556      1.0000      0.0000      0.5000      0.9000           0
HPJ29           B                  1000.0000      0.0000    167.0000    336.0855      1.0000      0.8817      0.2556      1.0000      0.0000      0.5000      0.9000           0
HPJ29           B                  1000.0000      0.0000    167.0000    336.0855      1.0000      1.1518      0.2556      1.0000      0.0000      0.5000      0.9000           0
HPJ29           B                  1000.0000      0.0000    167.0000    336.0855      1.0000      0.6577      0.2556      1.0000      0.3000      0.9000      0.2000           0
HPJ29           B                  1000.0000      0.0000    167.0000    336.0855      1.0000      0.4200      0.2556      1.0000      0.3000      0.9000      0.2000           0
HPJ50           C                  1500.0000      0.0000    211.2000    538.9276      1.0000      1.4992      0.2556      1.0000      0.0000      0.5000      0.9000           0
HPJ29           B                  1000.0000      0.0000    167.0000    336.0855      1.0000      0.4467      0.2556      1.0000      0.3000      0.9000      0.2000           0
HPJ29           B                  1000.0000      0.0000    167.0000    336.0855      1.0000      0.5493      0.2556      1.0000      0.3000      0.9000      0.2000           0
HPJ29           B                  1000.0000      0.0000    167.0000    336.0855      1.0000      0.9292      0.2556      1.0000      0.0000      0.5000      0.9000           0
HPJ29           B                  1000.0000      0.0000    167.0000    336.0855      1.0000      1.0327      0.2556      1.0000      0.0000      0.5000      0.9000           0
HPJ29           B                  1000.0000      0.0000    167.0000    336.0855      1.0000      0.5827      0.2556      1.0000      0.3000      0.9000      0.2000           0
HPJ29           B                  1000.0000      0.0000    167.0000    336.0855      1.0000      0.7454      0.2556      1.0000      0.0000      0.5000      0.9000           0
HPJ68           D                   800.0000      0.0000     55.9000    272.4638      1.0000      0.3377      0.2556      1.0000      0.3000      0.0500      0.2000           0
HPJ64           C                   800.0000      0.0000    134.7000    197.9950      1.0000      0.9325      0.2556      1.0000      0.0000      0.5000      0.9000           0
HPJ29           B                  1000.0000      0.0000    167.0000    336.0855      1.0000      0.8135      0.2556      1.0000      0.0000      0.5000      0.9000           0
HPJ29           B                  1000.0000      0.0000    167.0000    336.0855      1.0000      0.8361      0.2556      1.0000      0.0000      0.5000      0.9000           0
HPJ29           B                  1000.0000      0.0000    167.0000    336.0855      1.0000      7.0774      0.2556      1.0000      0.0000      0.5000      0.9000           0
HPJ29           B                  1000.0000      0.0000    167.0000    336.0855      1.0000      0.9528      0.2556      1.0000      0.0000      0.5000      0.9000           0
HPJ29           B                  1000.0000      0.0000    167.0000    336.0855      1.0000      1.6676      0.2556      1.0000      0.0000      0.5000      0.9000           0
HPJ68           D                   800.0000      0.0000     55.9000    272.4638      1.0000      0.9570      0.2556      1.0000      0.0000      0.0500      0.9000           0
HPJ29           B                  1000.0000      0.0000    167.0000    336.0855      1.0000      0.6445      0.2556      1.0000      0.3000      0.9000      0.2000           0
HPJ29           B                  1000.0000      0.0000    167.0000    336.0855      1.0000      0.6410      0.2556      1.0000      0.3000      0.9000      0.2000           0
HPJ29           B                  1000.0000      0.0000    167.0000    336.0855      1.0000      0.6231      0.2556      1.0000      0.3000      0.9000      0.2000           0
HPJ47           C                   790.0000      0.0000    113.5000    292.6642      1.0000      0.5889      0.2556      1.0000      0.3000      0.5000      0.2000           0
HPJ29           B                  1000.0000      0.0000    167.0000    336.0855      1.0000      0.6155      0.2556      1.0000      0.3000      0.9000      0.2000           0
HPJ29           B                  1000.0000      0.0000    167.0000    336.0855      1.0000      0.5083      0.2556      1.0000      0.3000      0.9000      0.2000           0
HPJ29           B                  1000.0000      0.0000    167.0000    336.0855      1.0000      1.2143      0.2556      1.0000      0.0000      0.5000      0.9000           0
HPJ29           B                  1000.0000      0.0000    167.0000    336.0855      1.0000      0.1996      0.2556      1.0000      0.9500      0.9000      0.0100           0
HPJ29           B                  1000.0000      0.0000    167.0000    336.0855      1.0000      1.2026      0.2556      1.0000      0.0000      0.5000      0.9000           0
HPJ29           B                  1000.0000      0.0000    167.0000    336.0855      1.0000      0.6823      0.2556      1.0000      0.0000      0.5000      0.9000           0
HPJ29           B                  1000.0000      0.0000    167.0000    336.0855      1.0000      0.6585      0.2556      1.0000      0.3000      0.9000      0.2000           0
HPJ29           B                  1000.0000      0.0000    167.0000    336.0855      1.0000      0.5412      0.2556      1.0000      0.3000      0.9000      0.2000           0
HPJ29           B                  1000.0000      0.0000    167.0000    336.0855      1.0000      0.5600      0.2556      1.0000      0.3000      0.9000      0.2000           0
HPJF3           C                  1050.0000      0.0000    139.2000    446.7699      1.0000      0.5821      0.2556      1.0000      0.3000      0.5000      0.2000           0
HPJ68           D                   800.0000      0.0000     55.9000    272.4638      1.0000      0.3485      0.2556      1.0000      0.3000      0.0500      0.2000           0
HPJ29           B                  1000.0000      0.0000    167.0000    336.0855      1.0000      0.3268      0.2556      1.0000      0.9500      0.9000      0.0100           0
HPJ29           B                  1000.0000      0.0000    167.0000    336.0855      1.0000      0.7613      0.2556      1.0000      0.0000      0.5000      0.9000           0
HPJ29           B                  1000.0000      0.0000    167.0000    336.0855      1.0000      0.9367      0.2556      1.0000      0.0000      0.5000      0.9000           0
HPJ50           C                  1500.0000      0.0000    211.2000    538.9276      1.0000      0.8366      0.2556      1.0000      0.0000      0.5000      0.9000           0
HPJ29           B                  1000.0000      0.0000    167.0000    336.0855      1.0000      0.5607      0.2556      1.0000      0.3000      0.9000      0.2000           0
HPJ29           B                  1000.0000      0.0000    167.0000    336.0855      1.0000      0.8191      0.2556      1.0000      0.0000      0.5000      0.9000           0
HPJ29           B                  1000.0000      0.0000    167.0000    336.0855      1.0000      0.4645      0.2556      1.0000      0.3000      0.9000      0.2000           0
HPJ29           B                  1000.0000      0.0000    167.0000    336.0855      1.0000      0.4933      0.2556      1.0000      0.3000      0.9000      0.2000           0
HPJ29           B                  1000.0000      0.0000    167.0000    336.0855      1.0000      0.7125      0.2556      1.0000      0.0000      0.5000      0.9000           0
HPJ29           B                  1000.0000      0.0000    167.0000    336.0855      1.0000      0.9487      0.2556      1.0000      0.0000      0.5000      0.9000           0
HPJ29           B                  1000.0000      0.0000    167.0000    336.0855      1.0000      0.8404      0.2556      1.0000      0.0000      0.5000      0.9000           0
HPJ47           C                   790.0000      0.0000    113.5000    292.6642      1.0000      0.6557      0.2556      1.0000      0.3000      0.5000      0.2000           0
HPJ37           B                   920.0000      0.0000    130.4000    335.6291      1.0000      0.6942      0.2556      1.0000      0.0000      0.5000      0.9000           0
HPJ29           B                  1000.0000      0.0000    167.0000    336.0855      1.0000      0.5474      0.2556      1.0000      0.3000      0.9000      0.2000           0
HPJ68           D                   800.0000      0.0000     55.9000    272.4638      1.0000      0.5273      0.2556      1.0000      0.0000      0.0500      0.9000           0
HPJ64           C                   800.0000      0.0000    134.7000    197.9950      1.0000      0.1924      0.2556      1.0000      0.9500      0.1000      0.0100           1
HPJ64           C                   800.0000      0.0000    134.7000    197.9950      1.0000      0.3259      0.2556      1.0000      0.3000      0.5000      0.2000           0
HPJ68           D                   800.0000      0.0000     55.9000    272.4638      1.0000      0.6760      0.2556      1.0000      0.9500      0.1000      0.0100           1
HPJ68           D                   800.0000      0.0000     55.9000    272.4638      1.0000      0.7880      0.2556      1.0000      0.0000      0.0500      0.9000           0
HPJ68           D                   800.0000      0.0000     55.9000    272.4638      1.0000      0.3447      0.2556      1.0000      0.3000      0.0500      0.2000           0
HPJ71           D                  1500.0000      0.0000    304.4000    534.5680      1.0000      0.0690      0.2556      1.0000      0.9500      0.0500      0.0100           0
HPJF3           C                  1050.0000      0.0000    139.2000    446.7699      1.0000      0.3081      0.2556      1.0000      0.3000      0.5000      0.2000           0
HPJ64           C                   800.0000      0.0000    134.7000    197.9950      1.0000      0.1513      0.2556      1.0000      0.9500      0.5000      0.0100           0
HPJ68           D                   800.0000      0.0000     55.9000    272.4638      1.0000      0.6028      0.2556      1.0000      0.0000      0.0500      0.9000           0
HPJ68           D                   800.0000      0.0000     55.9000    272.4638      1.0000      0.3944      0.2556      1.0000      0.3000      0.0500      0.2000           0
HPJ67           D                   850.0000      0.0000     59.4000    259.4922      1.0000      0.3349      0.2556      1.0000      0.3000      0.0500      0.2000           0
HPJ50           C                  1500.0000      0.0000    211.2000    538.9276      1.0000      0.3234      0.2556      1.0000      0.9500      0.1000      0.0100           1
