recall.rec: file was written by SWATprepR R package 2024-10-10 15:05:28
        id       name    rec_typ       file
         1     120104          3 120104.rec
         2     124298          3 124298.rec
         3     120116          3 120116.rec
