recall.rec: file was written by SWATprepR R package 2024-02-13 17:38:46
        id       name    rec_typ       file
         1     120104          3 120104.rec
         2     120116          3 120116.rec
         3     124298          3 124298.rec
