 HAFL_pntsource            SWAT+ Jan 11 2024        MODULAR Rev 2024.61.0                                 
                                        zmx       usle_k       sumfc       sumul      usle_p     usle_ls        esco        epco     cn3_swf       perco     latq_co   tiledrain 
 sname           hydgrp                 (mm)                    (mm)        (mm)                                                                                     0=notile;1=tile;
soil1           D                  1200.0000      0.0000    153.8715    313.1179      0.7500      2.5841      0.3891      1.0000      0.0000      0.0500      0.9000           0
soil2           B                  1200.0000      0.0000    152.1840    266.2022      0.7500      0.8714      0.3891      1.0000      0.0000      0.5000      0.9000           0
soil3           A                  1200.0000      0.0000    152.7240    277.7520      0.7500      1.5323      0.3891      1.0000      0.3000      0.9000      0.2000           0
soil7           B                  1200.0000      0.0000    158.9130    297.9251      0.7500      0.1518      0.3891      1.0000      0.9500      0.9000      0.0100           0
soil9           C                  1200.0000      0.0000    189.7470    363.3857      0.7500      0.1449      0.3891      1.0000      0.9500      0.5000      0.0100           0
soil10          B                  1200.0000      0.0000    140.1630    217.2505      0.7500      0.1023      0.3891      1.0000      0.9500      0.9000      0.0100           0
soil12          A                  1200.0000      0.0000    131.7855    189.4564      0.7500      0.0970      0.3891      1.0000      0.9500      0.9000      0.0100           0
soil13          D                  1200.0000      0.0000    161.0970    309.3888      0.7500      1.3466      0.3891      1.0000      0.9500      0.1000      0.0100           1
soil15          B                  1200.0000      0.0000    162.5310    312.5710      0.7500      0.8321      0.3891      1.0000      0.0000      0.5000      0.9000           0
soil16          A                  1200.0000      0.0000    138.4665    183.1436      0.7500      0.0701      0.3891      1.0000      0.9500      0.9000      0.0100           0
soil18          B                  1200.0000      0.0000    159.7830    313.1227      0.7500      0.2246      0.3891      1.0000      0.9500      0.9000      0.0100           0
soil20          C                  1200.0000      0.0000    147.5295    279.6982      0.7500      0.1378      0.3891      1.0000      0.9500      0.1000      0.0100           1
soil21          B                  1200.0000      0.0000    151.1145    255.7621      0.7500      0.6121      0.3891      1.0000      0.3000      0.9000      0.2000           0
soil22          A                  1200.0000      0.0000    152.4675    261.6913      0.7500      0.6933      0.3891      1.0000      0.3000      0.9000      0.2000           0
soil24          D                  1200.0000      0.0000    162.6435    307.6016      0.7500      2.5253      0.3891      1.0000      0.0000      0.0500      0.9000           0
soil26          B                  1200.0000      0.0000    128.0175    180.6743      0.7500      0.1077      0.3891      1.0000      0.9500      0.9000      0.0100           0
soil28          A                  1200.0000      0.0000    155.2950    288.2552      0.7500      0.8908      0.3891      1.0000      0.3000      0.9000      0.2000           0
soil29          B                  1200.0000      0.0000    152.8815    271.0451      0.7500      0.3374      0.3891      1.0000      0.9500      0.1000      0.0100           1
soil30          C                  1200.0000      0.0000    164.5785    335.5421      0.7500      2.4260      0.3891      1.0000      0.0000      0.0500      0.9000           0
soil32          B                  1200.0000      0.0000    159.2640    308.9889      0.7500      0.7888      0.3891      1.0000      0.0000      0.5000      0.9000           0
soil35          A                  1200.0000      0.0000    162.4740    316.5361      0.7500      1.1167      0.3891      1.0000      0.9500      0.1000      0.0100           1
soil36          D                  1200.0000      0.0000    123.2295    172.2622      0.7500      0.1190      0.3891      1.0000      0.9500      0.0500      0.0100           0
soil37          B                  1200.0000      0.0000    159.0075    312.3307      0.7500      0.5632      0.3891      1.0000      0.3000      0.9000      0.2000           0
soil39          A                  1200.0000      0.0000    135.8175    201.0638      0.7500      0.0650      0.3891      1.0000      0.9500      0.9000      0.0100           0
soil40          B                  1200.0000      0.0000    149.8530    292.1690      0.7500      1.0507      0.3891      1.0000      0.0000      0.5000      0.9000           0
soil42          C                  1200.0000      0.0000    139.7535    216.0285      0.7500      0.1096      0.3891      1.0000      0.9500      0.5000      0.0100           0
soil43          B                  1200.0000      0.0000    157.8915    294.8841      0.7500      0.4909      0.3891      1.0000      0.3000      0.9000      0.2000           0
soil51          A                  1200.0000      0.0000    161.0430    308.1727      0.7500      0.7248      0.3891      1.0000      0.3000      0.9000      0.2000           0
soil54          D                  1200.0000      0.0000    160.3770    315.2993      0.7500      1.4865      0.3891      1.0000      0.0000      0.0500      0.9000           0
soil58          B                  1200.0000      0.0000    150.6720    253.1819      0.7500      1.2980      0.3891      1.0000      0.0000      0.5000      0.9000           0
soil59          A                  1200.0000      0.0000    143.9520    210.3107      0.7500      0.1984      0.3891      1.0000      0.9500      0.9000      0.0100           0
soil60          B                  1200.0000      0.0000    148.7175    269.4940      0.7500      0.1197      0.3891      1.0000      0.9500      0.9000      0.0100           0
soil62          C                  1200.0000      0.0000    153.1320    270.6173      0.7500      0.5047      0.3891      1.0000      0.3000      0.5000      0.2000           0
soil70          B                  1200.0000      0.0000    158.8035    301.1181      0.7500      0.4065      0.3891      1.0000      0.3000      0.9000      0.2000           0
soil73          D                  1200.0000      0.0000    165.3690    323.5074      0.7500      4.1765      0.3891      1.0000      0.0000      0.0500      0.9000           0
soil75          B                  1200.0000      0.0000    160.9935    315.7399      0.7500      1.2931      0.3891      1.0000      0.0000      0.5000      0.9000           0
soil77          A                  1200.0000      0.0000    160.0590    317.6238      0.7500      1.6624      0.3891      1.0000      0.3000      0.9000      0.2000           0
soil78          B                  1200.0000      0.0000    160.3200    329.2234      0.7500      1.8870      0.3891      1.0000      0.0000      0.5000      0.9000           0
soil80          C                  1200.0000      0.0000    160.4685    322.6058      0.7500      3.3199      0.3891      1.0000      0.0000      0.0500      0.9000           0
soil90          B                  1200.0000      0.0000    160.8075    308.3737      0.7500      0.5533      0.3891      1.0000      0.3000      0.9000      0.2000           0
soil91          A                  1200.0000      0.0000    168.6735    330.3445      0.7500      0.3988      0.3891      1.0000      0.9500      0.9000      0.0100           0
soil93          D                  1200.0000      0.0000    159.7260    320.8792      0.7500      2.0829      0.3891      1.0000      0.0000      0.0500      0.9000           0
soil94          B                  1200.0000      0.0000    157.0680    312.7545      0.7500      1.8607      0.3891      1.0000      0.0000      0.5000      0.9000           0
soil95          A                  1200.0000      0.0000    159.3945    313.9929      0.7500      1.8266      0.3891      1.0000      0.3000      0.9000      0.2000           0
soil96          B                  1200.0000      0.0000    156.7560    309.5109      0.7500      0.9285      0.3891      1.0000      0.0000      0.5000      0.9000           0
soil100         C                  1200.0000      0.0000    164.4615    309.3953      0.7500      0.4223      0.3891      1.0000      0.3000      0.5000      0.2000           0
soil101         B                  1200.0000      0.0000    150.6720    245.6835      0.7500      0.2800      0.3891      1.0000      0.9500      0.9000      0.0100           0
soil102         A                  1200.0000      0.0000    150.9045    266.4407      0.7500      0.3190      0.3891      1.0000      0.9500      0.1000      0.0100           1
soil105         D                  1200.0000      0.0000    151.4655    276.9668      0.7500      0.8226      0.3891      1.0000      0.0000      0.0500      0.9000           0
soil106         B                  1200.0000      0.0000    146.6775    241.5338      0.7500      0.7514      0.3891      1.0000      0.0000      0.5000      0.9000           0
soil107         A                  1200.0000      0.0000    162.8100    326.2996      0.7500      4.0811      0.3891      1.0000      0.0000      0.9000      0.9000           0
soil108         B                  1200.0000      0.0000    146.6775    236.3303      0.7500      0.3389      0.3891      1.0000      0.9500      0.9000      0.0100           0
soil109         C                  1200.0000      0.0000    147.5190    256.8660      0.7500      0.3193      0.3891      1.0000      0.3000      0.5000      0.2000           0
soil110         B                  1200.0000      0.0000    136.8270    219.4998      0.7500      0.1790      0.3891      1.0000      0.9500      0.1000      0.0100           1
soil112         A                  1200.0000      0.0000    150.7170    280.5821      0.7500      0.5837      0.3891      1.0000      0.9500      0.1000      0.0100           1
soil116         D                  1200.0000      0.0000    160.9215    312.5218      0.7500      3.6191      0.3891      1.0000      0.0000      0.0500      0.9000           0
soil117         B                  1200.0000      0.0000    135.6975    198.9173      0.7500      0.1279      0.3891      1.0000      0.9500      0.9000      0.0100           0
soil118         A                  1200.0000      0.0000    148.9425    265.4903      0.7500      0.3483      0.3891      1.0000      0.9500      0.9000      0.0100           0
soil120         B                  1200.0000      0.0000    161.9565    318.0795      0.7500      1.0207      0.3891      1.0000      0.9500      0.1000      0.0100           1
soil123         C                  1200.0000      0.0000    127.8690    178.5003      0.7500      0.1197      0.3891      1.0000      0.9500      0.5000      0.0100           0
soil125         B                  1200.0000      0.0000    161.4285    315.6842      0.7500      3.0446      0.3891      1.0000      0.0000      0.5000      0.9000           0
soil126         A                  1200.0000      0.0000    157.2540    300.0405      0.7500      0.3912      0.3891      1.0000      0.9500      0.9000      0.0100           0
soil127         D                  1200.0000      0.0000    150.9945    258.1190      0.7500      1.1215      0.3891      1.0000      0.0000      0.0500      0.9000           0
soil128         B                  1200.0000      0.0000    143.5350    236.5097      0.7500      0.1183      0.3891      1.0000      0.9500      0.9000      0.0100           0
soil129         A                  1200.0000      0.0000    143.3580    231.8756      0.7500      0.1204      0.3891      1.0000      0.9500      0.9000      0.0100           0
soil130         B                  1200.0000      0.0000    164.0505    322.4817      0.7500      3.1903      0.3891      1.0000      0.0000      0.5000      0.9000           0
soil132         C                  1200.0000      0.0000    186.9885    336.0808      0.7500      0.1251      0.3891      1.0000      0.9500      0.1000      0.0100           1
soil133         B                  1200.0000      0.0000    122.5020    169.0278      0.7500      0.1379      0.3891      1.0000      0.9500      0.9000      0.0100           0
soil134         A                  1200.0000      0.0000    150.0075    278.0364      0.7500      0.0840      0.3891      1.0000      0.9500      0.9000      0.0100           0
soil135         D                  1200.0000      0.0000    155.0115    315.4797      0.7500      2.8029      0.3891      1.0000      0.0000      0.0500      0.9000           0
soil137         B                  1200.0000      0.0000    147.0345    282.8734      0.7500      0.1353      0.3891      1.0000      0.9500      0.9000      0.0100           0
soil138         A                  1200.0000      0.0000    162.8670    307.5118      0.7500      2.1694      0.3891      1.0000      0.0000      0.9000      0.9000           0
soil139         B                  1200.0000      0.0000    141.5355    205.9378      0.7500      0.1978      0.3891      1.0000      0.9500      0.9000      0.0100           0
soil141         B                  1200.0000      0.0000    172.9695    335.0661      0.7500      2.0738      0.3891      1.0000      0.0000      0.5000      0.9000           0
soil143         A                  1200.0000      0.0000    144.6840    225.8248      0.7500      0.6975      0.3891      1.0000      0.3000      0.9000      0.2000           0
soil146         D                  1200.0000      0.0000    161.0340    306.1538      0.7500      1.5100      0.3891      1.0000      0.9500      0.1000      0.0100           1
soil147         B                  1200.0000      0.0000    156.9555    301.1739      0.7500      1.2333      0.3891      1.0000      0.0000      0.5000      0.9000           0
soil150         A                  1200.0000      0.0000    137.6445    172.1968      0.7500      0.1151      0.3891      1.0000      0.9500      0.9000      0.0100           0
soil152         B                  1200.0000      0.0000    162.2385    324.5946      0.7500      1.7969      0.3891      1.0000      0.0000      0.5000      0.9000           0
soil153         C                  1200.0000      0.0000    158.9280    315.2521      0.7500      2.2869      0.3891      1.0000      0.0000      0.0500      0.9000           0
soil154         B                  1200.0000      0.0000    153.1440    246.9105      0.7500      0.7648      0.3891      1.0000      0.0000      0.5000      0.9000           0
soil155         A                  1200.0000      0.0000    155.4885    296.4482      0.7500      1.5268      0.3891      1.0000      0.3000      0.9000      0.2000           0
soil158         D                  1200.0000      0.0000    161.7060    322.2027      0.7500      1.0291      0.3891      1.0000      0.0000      0.0500      0.9000           0
soil159         B                  1200.0000      0.0000    151.5420    266.6593      0.7500      0.3555      0.3891      1.0000      0.9500      0.1000      0.0100           1
soil160         A                  1200.0000      0.0000    150.3015    255.1415      0.7500      0.6454      0.3891      1.0000      0.9500      0.9000      0.0100           0
soil162         B                  1200.0000      0.0000    153.9735    300.8250      0.7500      0.6577      0.3891      1.0000      0.3000      0.9000      0.2000           0
soil163         C                  1200.0000      0.0000    159.1440    313.6641      0.7500      0.7046      0.3891      1.0000      0.0000      0.5000      0.9000           0
soil164         B                  1200.0000      0.0000    154.4310    292.3962      0.7500      0.5254      0.3891      1.0000      0.3000      0.9000      0.2000           0
soil165         A                  1200.0000      0.0000    163.3935    315.8033      0.7500      2.5130      0.3891      1.0000      0.0000      0.9000      0.9000           0
soil166         D                  1200.0000      0.0000    158.2650    315.3155      0.7500      0.5076      0.3891      1.0000      0.0000      0.0500      0.9000           0
soil169         B                  1200.0000      0.0000    148.2000    235.8315      0.7500      0.2838      0.3891      1.0000      0.9500      0.9000      0.0100           0
soil170         A                  1200.0000      0.0000    143.1015    252.8306      0.7500      0.1140      0.3891      1.0000      0.9500      0.9000      0.0100           0
soil171         B                  1200.0000      0.0000    148.2105    226.9604      0.7500      0.3855      0.3891      1.0000      0.9500      0.9000      0.0100           0
soil172         C                  1200.0000      0.0000    154.2375    274.7687      0.7500      1.0656      0.3891      1.0000      0.0000      0.5000      0.9000           0
soil176         B                  1200.0000      0.0000    126.5535    193.8370      0.7500      0.1887      0.3891      1.0000      0.9500      0.9000      0.0100           0
soil177         A                  1200.0000      0.0000    162.9135    320.1086      0.7500      0.9920      0.3891      1.0000      0.3000      0.9000      0.2000           0
soil178         D                  1200.0000      0.0000    163.1010    342.5072      0.7500      2.4696      0.3891      1.0000      0.0000      0.0500      0.9000           0
soil180         B                  1200.0000      0.0000    140.7165    249.9576      0.7500      0.5732      0.3891      1.0000      0.3000      0.9000      0.2000           0
soil181         A                  1200.0000      0.0000    150.2655    230.6030      0.7500      0.4292      0.3891      1.0000      0.9500      0.1000      0.0100           1
soil182         B                  1200.0000      0.0000    146.5770    242.4174      0.7500      0.2945      0.3891      1.0000      0.9500      0.9000      0.0100           0
soil187         C                  1200.0000      0.0000    148.4040    254.6813      0.7500      0.1209      0.3891      1.0000      0.9500      0.5000      0.0100           0
soil189         B                  1200.0000      0.0000    122.8515    169.5027      0.7500      0.1025      0.3891      1.0000      0.9500      0.9000      0.0100           0
soil190         A                  1200.0000      0.0000    159.4800    305.7638      0.7500      0.9586      0.3891      1.0000      0.3000      0.9000      0.2000           0
soil192         D                  1200.0000      0.0000    138.2895    211.7594      0.7500      0.2605      0.3891      1.0000      0.3000      0.0500      0.2000           0
soil193         B                  1200.0000      0.0000    145.5345    219.9348      0.7500      0.0988      0.3891      1.0000      0.9500      0.9000      0.0100           0
soil194         A                  1200.0000      0.0000    155.1780    268.7003      0.7500      0.3228      0.3891      1.0000      0.9500      0.1000      0.0100           1
soil195         B                  1200.0000      0.0000    160.3365    312.0159      0.7500      1.1883      0.3891      1.0000      0.0000      0.5000      0.9000           0
soil196         C                  1200.0000      0.0000    161.2095    308.9923      0.7500      1.0055      0.3891      1.0000      0.0000      0.5000      0.9000           0
soil200         B                  1200.0000      0.0000    141.1860    200.5662      0.7500      0.0819      0.3891      1.0000      0.9500      0.9000      0.0100           0
soil202         A                  1200.0000      0.0000    148.4430    239.0816      0.7500      1.5397      0.3891      1.0000      0.3000      0.9000      0.2000           0
soil203         D                  1200.0000      0.0000    153.1065    278.1187      0.7500      0.1918      0.3891      1.0000      0.9500      0.0500      0.0100           0
soil204         B                  1200.0000      0.0000    156.6495    298.6030      0.7500      0.5231      0.3891      1.0000      0.3000      0.9000      0.2000           0
soil205         A                  1200.0000      0.0000    157.1940    313.0032      0.7500      1.9405      0.3891      1.0000      0.0000      0.9000      0.9000           0
soil206         B                  1200.0000      0.0000    153.1830    290.3004      0.7500      0.6031      0.3891      1.0000      0.3000      0.9000      0.2000           0
soil216         B                  1200.0000      0.0000    158.2965    288.2102      0.7500      0.4051      0.3891      1.0000      0.3000      0.9000      0.2000           0
soil217         A                  1200.0000      0.0000    157.6560    287.9722      0.7500      2.0373      0.3891      1.0000      0.0000      0.9000      0.9000           0
soil218         D                  1200.0000      0.0000    151.8375    265.3705      0.7500      0.9407      0.3891      1.0000      0.0000      0.0500      0.9000           0
soil219         B                  1200.0000      0.0000    153.5610    242.3050      0.7500      0.4682      0.3891      1.0000      0.3000      0.9000      0.2000           0
soil220         A                  1200.0000      0.0000    130.2675    184.2411      0.7500      0.1708      0.3891      1.0000      0.9500      0.9000      0.0100           0
soil221         B                  1200.0000      0.0000    148.2030    243.6342      0.7500      0.7468      0.3891      1.0000      0.9500      0.1000      0.0100           1
soil222         C                  1200.0000      0.0000    150.3600    247.6938      0.7500      0.2924      0.3891      1.0000      0.3000      0.5000      0.2000           0
soil225         B                  1200.0000      0.0000    152.7240    277.0607      0.7500      0.4199      0.3891      1.0000      0.9500      0.1000      0.0100           1
soil227         A                  1200.0000      0.0000    155.8725    293.6154      0.7500      0.8194      0.3891      1.0000      0.3000      0.9000      0.2000           0
soil228         D                  1200.0000      0.0000    147.1845    246.8388      0.7500      0.3043      0.3891      1.0000      0.9500      0.1000      0.0100           1
soil231         B                  1200.0000      0.0000    158.7480    298.0052      0.7500      0.2501      0.3891      1.0000      0.9500      0.1000      0.0100           1
soil233         A                  1200.0000      0.0000    157.6995    302.0331      0.7500      0.2046      0.3891      1.0000      0.9500      0.9000      0.0100           0
soil235         B                  1200.0000      0.0000    154.9590    275.6687      0.7500      0.5326      0.3891      1.0000      0.3000      0.9000      0.2000           0
soil236         C                  1200.0000      0.0000    131.2785    182.7027      0.7500      0.1685      0.3891      1.0000      0.9500      0.5000      0.0100           0
soil238         B                  1200.0000      0.0000    149.0415    260.0036      0.7500      0.2499      0.3891      1.0000      0.9500      0.1000      0.0100           1
soil240         A                  1200.0000      0.0000    148.7055    263.0110      0.7500      0.1874      0.3891      1.0000      0.9500      0.9000      0.0100           0
soil241         D                  1200.0000      0.0000    144.4800    211.0515      0.7500      0.2046      0.3891      1.0000      0.3000      0.0500      0.2000           0
soil242         B                  1200.0000      0.0000    162.1905    316.0381      0.7500      0.7762      0.3891      1.0000      0.0000      0.5000      0.9000           0
soil243         A                  1200.0000      0.0000    140.3820    217.1818      0.7500      0.2326      0.3891      1.0000      0.9500      0.9000      0.0100           0
soil244         B                  1200.0000      0.0000    164.0250    312.8695      0.7500      1.1199      0.3891      1.0000      0.9500      0.1000      0.0100           1
soil245         C                  1200.0000      0.0000    160.2330    314.5791      0.7500      1.0311      0.3891      1.0000      0.0000      0.5000      0.9000           0
soil246         B                  1200.0000      0.0000    129.3585    188.5742      0.7500      0.1806      0.3891      1.0000      0.9500      0.9000      0.0100           0
soil248         A                  1200.0000      0.0000    157.4430    295.2671      0.7500      0.7019      0.3891      1.0000      0.9500      0.1000      0.0100           1
soil249         D                  1200.0000      0.0000    152.1285    246.0308      0.7500      0.1770      0.3891      1.0000      0.9500      0.1000      0.0100           1
soil250         B                  1200.0000      0.0000    149.0100    255.2800      0.7500      0.6325      0.3891      1.0000      0.3000      0.9000      0.2000           0
soil251         A                  1200.0000      0.0000    162.0450    307.6720      0.7500      1.1836      0.3891      1.0000      0.3000      0.9000      0.2000           0
soil252         B                  1200.0000      0.0000    149.6400    258.5852      0.7500      0.5731      0.3891      1.0000      0.3000      0.9000      0.2000           0
soil253         C                  1200.0000      0.0000    162.7710    314.1935      0.7500      0.4875      0.3891      1.0000      0.3000      0.5000      0.2000           0
soil258         B                  1200.0000      0.0000    156.5835    299.9505      0.7500      0.5425      0.3891      1.0000      0.3000      0.9000      0.2000           0
soil259         A                  1200.0000      0.0000    156.1350    280.9706      0.7500      0.0922      0.3891      1.0000      0.9500      0.1000      0.0100           1
soil260         D                  1200.0000      0.0000    155.5515    279.8556      0.7500      0.1558      0.3891      1.0000      0.9500      0.1000      0.0100           1
soil262         B                  1200.0000      0.0000    152.9085    268.3295      0.7500      0.8738      0.3891      1.0000      0.9500      0.1000      0.0100           1
soil264         A                  1200.0000      0.0000    149.2410    274.4478      0.7500      0.6474      0.3891      1.0000      0.9500      0.1000      0.0100           1
soil265         B                  1200.0000      0.0000    157.5705    303.1411      0.7500      1.0247      0.3891      1.0000      0.0000      0.5000      0.9000           0
soil266         C                  1200.0000      0.0000    145.6785    232.8960      0.7500      0.1132      0.3891      1.0000      0.9500      0.5000      0.0100           0
soil267         B                  1200.0000      0.0000    149.1375    259.0101      0.7500      0.3896      0.3891      1.0000      0.9500      0.1000      0.0100           1
soil268         A                  1200.0000      0.0000    161.0205    306.2039      0.7500      0.5046      0.3891      1.0000      0.9500      0.9000      0.0100           0
soil269         D                  1200.0000      0.0000    158.6055    297.7078      0.7500      0.7572      0.3891      1.0000      0.0000      0.0500      0.9000           0
soil270         B                  1200.0000      0.0000    163.1850    318.6925      0.7500      1.0850      0.3891      1.0000      0.0000      0.5000      0.9000           0
soil271         A                  1200.0000      0.0000    148.2285    240.5332      0.7500      0.1975      0.3891      1.0000      0.9500      0.1000      0.0100           1
soil272         B                  1200.0000      0.0000    159.6450    311.4553      0.7500      1.4615      0.3891      1.0000      0.9500      0.1000      0.0100           1
soil273         C                  1200.0000      0.0000    148.5825    247.7103      0.7500      0.4523      0.3891      1.0000      0.3000      0.5000      0.2000           0
soil276         B                  1200.0000      0.0000    149.8665    254.7482      0.7500      0.1808      0.3891      1.0000      0.9500      0.9000      0.0100           0
soil278         A                  1200.0000      0.0000    160.8660    298.2228      0.7500      1.0747      0.3891      1.0000      0.9500      0.1000      0.0100           1
soil279         D                  1200.0000      0.0000    160.9035    306.1731      0.7500      0.1861      0.3891      1.0000      0.9500      0.0500      0.0100           0
soil280         B                  1200.0000      0.0000    165.2925    285.6877      0.7500      0.1440      0.3891      1.0000      0.9500      0.1000      0.0100           1
soil287         A                  1200.0000      0.0000    164.0565    318.7770      0.7500      0.4616      0.3891      1.0000      0.9500      0.1000      0.0100           1
soil293         B                  1200.0000      0.0000    153.5505    285.3073      0.7500      1.4654      0.3891      1.0000      0.0000      0.5000      0.9000           0
soil295         C                  1200.0000      0.0000    126.8070    182.6911      0.7500      0.0888      0.3891      1.0000      0.9500      0.1000      0.0100           1
soil296         B                  1200.0000      0.0000    151.1340    269.7178      0.7500      0.3908      0.3891      1.0000      0.9500      0.1000      0.0100           1
soil299         A                  1200.0000      0.0000    151.1940    266.4966      0.7500      1.0441      0.3891      1.0000      0.3000      0.9000      0.2000           0
soil300         D                  1200.0000      0.0000    151.1220    260.2177      0.7500      1.0627      0.3891      1.0000      0.0000      0.0500      0.9000           0
soil301         B                  1200.0000      0.0000    151.2855    275.5201      0.7500      0.6968      0.3891      1.0000      0.9500      0.1000      0.0100           1
soil304         A                  1200.0000      0.0000    163.9470    318.0353      0.7500      1.5105      0.3891      1.0000      0.3000      0.9000      0.2000           0
soil305         B                  1200.0000      0.0000    138.7590    196.8938      0.7500      0.1606      0.3891      1.0000      0.9500      0.1000      0.0100           1
soil306         C                  1200.0000      0.0000    160.8855    318.7547      0.7500      2.3551      0.3891      1.0000      0.0000      0.0500      0.9000           0
soil309         B                  1200.0000      0.0000    146.0850    240.1122      0.7500      0.9731      0.3891      1.0000      0.0000      0.5000      0.9000           0
soil310         A                  1200.0000      0.0000    152.7360    290.3680      0.7500      0.3609      0.3891      1.0000      0.9500      0.1000      0.0100           1
soil311         D                  1200.0000      0.0000    145.5105    221.8585      0.7500      0.1199      0.3891      1.0000      0.9500      0.0500      0.0100           0
soil312         B                  1200.0000      0.0000    126.7290    186.7290      0.7500      0.0872      0.3891      1.0000      0.9500      0.9000      0.0100           0
soil313         A                  1200.0000      0.0000    150.4410    239.5677      0.7500      0.3314      0.3891      1.0000      0.9500      0.9000      0.0100           0
soil316         C                  1200.0000      0.0000    158.3490    296.6903      0.7500      0.2511      0.3891      1.0000      0.3000      0.5000      0.2000           0
soil317         B                  1200.0000      0.0000    147.7830    245.8877      0.7500      0.9170      0.3891      1.0000      0.0000      0.5000      0.9000           0
soil320         A                  1200.0000      0.0000    155.5740    297.7109      0.7500      0.4763      0.3891      1.0000      0.9500      0.1000      0.0100           1
soil323         D                  1200.0000      0.0000    160.4670    298.7031      0.7500      0.6270      0.3891      1.0000      0.0000      0.0500      0.9000           0
soil324         B                  1200.0000      0.0000    154.4445    294.5247      0.7500      0.2465      0.3891      1.0000      0.9500      0.1000      0.0100           1
soil327         A                  1200.0000      0.0000    158.6235    294.4496      0.7500      0.7441      0.3891      1.0000      0.3000      0.9000      0.2000           0
soil328         B                  1200.0000      0.0000    148.8930    228.8329      0.7500      0.3837      0.3891      1.0000      0.9500      0.1000      0.0100           1
soil329         C                  1200.0000      0.0000    158.3460    299.9449      0.7500      1.9522      0.3891      1.0000      0.0000      0.0500      0.9000           0
soil330         B                  1200.0000      0.0000    161.1600    305.6354      0.7500      0.6937      0.3891      1.0000      0.0000      0.5000      0.9000           0
soil331         A                  1200.0000      0.0000    125.8725    193.3633      0.7500      0.1796      0.3891      1.0000      0.9500      0.9000      0.0100           0
soil332         D                  1200.0000      0.0000    159.7395    285.6202      0.7500      0.9447      0.3891      1.0000      0.0000      0.0500      0.9000           0
soil333         B                  1200.0000      0.0000    151.1610    228.3700      0.7500      0.5226      0.3891      1.0000      0.9500      0.1000      0.0100           1
soil334         A                  1200.0000      0.0000    169.4595    338.3350      0.7500      1.4018      0.3891      1.0000      0.3000      0.9000      0.2000           0
soil335         B                  1200.0000      0.0000    148.8060    268.2654      0.7500      0.2195      0.3891      1.0000      0.9500      0.1000      0.0100           1
soil336         C                  1200.0000      0.0000    158.0610    289.0766      0.7500      0.8479      0.3891      1.0000      0.0000      0.5000      0.9000           0
soil337         B                  1200.0000      0.0000    160.8570    304.5676      0.7500      0.8950      0.3891      1.0000      0.0000      0.5000      0.9000           0
soil338         A                  1200.0000      0.0000    160.7010    305.2538      0.7500      1.4624      0.3891      1.0000      0.3000      0.9000      0.2000           0
soil339         D                  1200.0000      0.0000    158.9415    305.5312      0.7500      0.9710      0.3891      1.0000      0.0000      0.0500      0.9000           0
soil340         B                  1200.0000      0.0000    164.6955    311.5061      0.7500      0.8794      0.3891      1.0000      0.0000      0.5000      0.9000           0
soil342         A                  1200.0000      0.0000    159.5745    313.1592      0.7500      0.2835      0.3891      1.0000      0.9500      0.1000      0.0100           1
soil346         B                  1200.0000      0.0000    158.3790    305.7968      0.7500      0.3966      0.3891      1.0000      0.9500      0.1000      0.0100           1
soil347         C                  1200.0000      0.0000    163.2975    318.1163      0.7500      2.3082      0.3891      1.0000      0.0000      0.0500      0.9000           0
soil348         B                  1200.0000      0.0000    162.4845    313.4429      0.7500      0.9274      0.3891      1.0000      0.0000      0.5000      0.9000           0
soil349         A                  1200.0000      0.0000    156.1410    291.7737      0.7500      0.4317      0.3891      1.0000      0.9500      0.1000      0.0100           1
soil350         D                  1200.0000      0.0000    153.2475    280.2408      0.7500      0.5760      0.3891      1.0000      0.0000      0.0500      0.9000           0
soil351         B                  1200.0000      0.0000    156.8205    297.4686      0.7500      0.7529      0.3891      1.0000      0.0000      0.5000      0.9000           0
soil352         A                  1200.0000      0.0000    156.9570    297.7750      0.7500      0.5462      0.3891      1.0000      0.9500      0.1000      0.0100           1
soil353         B                  1200.0000      0.0000    153.1140    298.8590      0.7500      0.2184      0.3891      1.0000      0.9500      0.9000      0.0100           0
soil355         C                  1200.0000      0.0000    168.7260    340.5333      0.7500      1.8755      0.3891      1.0000      0.0000      0.0500      0.9000           0
soil356         B                  1200.0000      0.0000    167.8185    332.3440      0.7500      1.5597      0.3891      1.0000      0.0000      0.5000      0.9000           0
soil357         A                  1200.0000      0.0000    163.6980    327.7271      0.7500      4.0591      0.3891      1.0000      0.0000      0.9000      0.9000           0
soil358         D                  1200.0000      0.0000    150.6975    233.0410      0.7500      0.3145      0.3891      1.0000      0.9500      0.1000      0.0100           1
soil365         B                  1200.0000      0.0000    153.6795    277.4101      0.7500      0.2254      0.3891      1.0000      0.9500      0.9000      0.0100           0
soil366         A                  1200.0000      0.0000    162.2715    300.9896      0.7500      0.9570      0.3891      1.0000      0.9500      0.1000      0.0100           1
soil367         B                  1200.0000      0.0000    161.1150    311.7745      0.7500      1.3706      0.3891      1.0000      0.0000      0.5000      0.9000           0
soil368         C                  1200.0000      0.0000    162.7830    311.7404      0.7500      1.3018      0.3891      1.0000      0.9500      0.1000      0.0100           1
soil371         B                  1200.0000      0.0000    136.3695    212.7541      0.7500      0.2350      0.3891      1.0000      0.9500      0.9000      0.0100           0
soil372         A                  1200.0000      0.0000    158.3310    295.1297      0.7500      0.5281      0.3891      1.0000      0.9500      0.1000      0.0100           1
soil373         D                  1200.0000      0.0000    151.9785    284.8256      0.7500      0.3066      0.3891      1.0000      0.9500      0.1000      0.0100           1
soil374         B                  1200.0000      0.0000    165.5670    320.3771      0.7500      0.5452      0.3891      1.0000      0.3000      0.9000      0.2000           0
soil376         A                  1200.0000      0.0000    149.7480    299.0787      0.7500      3.0220      0.3891      1.0000      0.0000      0.9000      0.9000           0
soil377         B                  1200.0000      0.0000    168.7590    320.7102      0.7500      1.6518      0.3891      1.0000      0.0000      0.5000      0.9000           0
soil378         C                  1200.0000      0.0000    163.0185    313.6579      0.7500      2.4886      0.3891      1.0000      0.0000      0.0500      0.9000           0
soil380         B                  1200.0000      0.0000    160.2495    314.1832      0.7500      0.6334      0.3891      1.0000      0.9500      0.1000      0.0100           1
soil381         A                  1200.0000      0.0000    164.2620    318.2122      0.7500      2.0794      0.3891      1.0000      0.9500      0.1000      0.0100           1
soil382         D                  1200.0000      0.0000    164.5200    330.6249      0.7500      2.9378      0.3891      1.0000      0.9500      0.1000      0.0100           1
soil383         B                  1200.0000      0.0000    164.2665    313.9304      0.7500      0.3756      0.3891      1.0000      0.9500      0.9000      0.0100           0
soil384         A                  1200.0000      0.0000    159.9375    310.3417      0.7500      1.5281      0.3891      1.0000      0.3000      0.9000      0.2000           0
soil386         B                  1200.0000      0.0000    163.0710    316.2433      0.7500      1.4432      0.3891      1.0000      0.0000      0.5000      0.9000           0
soil388         C                  1200.0000      0.0000    162.7470    304.7344      0.7500      0.9458      0.3891      1.0000      0.0000      0.5000      0.9000           0
soil392         B                  1200.0000      0.0000    144.3240    197.0697      0.7500      0.1024      0.3891      1.0000      0.9500      0.1000      0.0100           1
soil396         A                  1200.0000      0.0000    148.6905    271.2015      0.7500      1.1003      0.3891      1.0000      0.9500      0.1000      0.0100           1
soil397         D                  1200.0000      0.0000    158.9250    310.1928      0.7500      3.2899      0.3891      1.0000      0.0000      0.0500      0.9000           0
soil398         B                  1200.0000      0.0000    156.2820    281.5597      0.7500      0.2261      0.3891      1.0000      0.9500      0.9000      0.0100           0
soil399         A                  1200.0000      0.0000    144.5160    223.1923      0.7500      0.0703      0.3891      1.0000      0.9500      0.1000      0.0100           1
soil401         B                  1200.0000      0.0000    153.2310    287.1021      0.7500      0.3195      0.3891      1.0000      0.9500      0.1000      0.0100           1
soil403         C                  1200.0000      0.0000    158.9070    297.7166      0.7500      1.1015      0.3891      1.0000      0.9500      0.1000      0.0100           1
soil405         B                  1200.0000      0.0000    152.1435    273.6390      0.7500      0.3391      0.3891      1.0000      0.9500      0.9000      0.0100           0
soil406         A                  1200.0000      0.0000    156.9480    289.4390      0.7500      0.9517      0.3891      1.0000      0.3000      0.9000      0.2000           0
soil407         D                  1200.0000      0.0000    165.2940    334.5473      0.7500      0.3407      0.3891      1.0000      0.9500      0.1000      0.0100           1
soil408         B                  1200.0000      0.0000    162.9660    318.5555      0.7500      0.4650      0.3891      1.0000      0.9500      0.1000      0.0100           1
soil409         A                  1200.0000      0.0000    146.7660    240.3113      0.7500      0.9879      0.3891      1.0000      0.3000      0.9000      0.2000           0
soil412         B                  1200.0000      0.0000    167.6865    320.8902      0.7500      1.4249      0.3891      1.0000      0.0000      0.5000      0.9000           0
soil413         C                  1200.0000      0.0000    161.2485    301.5850      0.7500      1.1088      0.3891      1.0000      0.0000      0.5000      0.9000           0
soil414         B                  1200.0000      0.0000    159.2730    308.6523      0.7500      2.6138      0.3891      1.0000      0.9500      0.1000      0.0100           1
soil415         A                  1200.0000      0.0000    154.9005    316.9213      0.7500      0.8741      0.3891      1.0000      0.9500      0.1000      0.0100           1
soil416         D                  1200.0000      0.0000    162.2685    317.8268      0.7500      2.3930      0.3891      1.0000      0.0000      0.0500      0.9000           0
soil420         B                  1200.0000      0.0000    164.9070    319.0595      0.7500      0.6476      0.3891      1.0000      0.3000      0.9000      0.2000           0
soil425         A                  1200.0000      0.0000    164.0070    326.2720      0.7500      1.6615      0.3891      1.0000      0.9500      0.1000      0.0100           1
soil426         B                  1200.0000      0.0000    154.9530    280.5030      0.7500      0.2553      0.3891      1.0000      0.9500      0.1000      0.0100           1
soil427         C                  1200.0000      0.0000    155.0910    274.4116      0.7500      0.1888      0.3891      1.0000      0.9500      0.1000      0.0100           1
soil428         B                  1200.0000      0.0000    153.1230    267.8133      0.7500      0.4152      0.3891      1.0000      0.3000      0.9000      0.2000           0
soil429         A                  1200.0000      0.0000    151.3845    225.0392      0.7500      1.0837      0.3891      1.0000      0.9500      0.1000      0.0100           1
soil431         D                  1200.0000      0.0000    152.4780    251.9729      0.7500      0.6032      0.3891      1.0000      0.9500      0.1000      0.0100           1
soil432         B                  1200.0000      0.0000    150.4140    235.5566      0.7500      0.2452      0.3891      1.0000      0.9500      0.9000      0.0100           0
soil433         A                  1200.0000      0.0000    150.4050    253.6633      0.7500      0.1738      0.3891      1.0000      0.9500      0.9000      0.0100           0
soil434         B                  1200.0000      0.0000    162.8880    304.8339      0.7500      0.9765      0.3891      1.0000      0.0000      0.5000      0.9000           0
soil435         C                  1200.0000      0.0000    148.9740    254.0936      0.7500      0.2427      0.3891      1.0000      0.9500      0.1000      0.0100           1
soil441         B                  1200.0000      0.0000    150.2025    236.0055      0.7500      0.5947      0.3891      1.0000      0.3000      0.9000      0.2000           0
soil442         A                  1200.0000      0.0000    145.9200    235.2678      0.7500      0.9177      0.3891      1.0000      0.3000      0.9000      0.2000           0
soil443         D                  1200.0000      0.0000    130.5900    198.0675      0.7500      0.1232      0.3891      1.0000      0.9500      0.0500      0.0100           0
soil444         B                  1200.0000      0.0000    124.8090    172.7358      0.7500      0.1324      0.3891      1.0000      0.9500      0.1000      0.0100           1
soil445         A                  1200.0000      0.0000    152.8185    275.0603      0.7500      0.5758      0.3891      1.0000      0.9500      0.1000      0.0100           1
soil448         B                  1200.0000      0.0000    153.8415    279.5006      0.7500      0.9132      0.3891      1.0000      0.9500      0.1000      0.0100           1
soil449         C                  1200.0000      0.0000    162.8235    323.2671      0.7500      0.9568      0.3891      1.0000      0.0000      0.5000      0.9000           0
soil453         B                  1200.0000      0.0000    132.3525    194.9534      0.7500      0.0819      0.3891      1.0000      0.9500      0.9000      0.0100           0
soil454         A                  1200.0000      0.0000    153.6330    269.7965      0.7500      0.6350      0.3891      1.0000      0.9500      0.9000      0.0100           0
soil455         D                  1200.0000      0.0000    152.7480    284.0681      0.7500      0.2768      0.3891      1.0000      0.9500      0.1000      0.0100           1
soil457         B                  1200.0000      0.0000    164.6925    310.7435      0.7500      2.2166      0.3891      1.0000      0.0000      0.5000      0.9000           0
soil462         A                  1200.0000      0.0000    153.2100    237.7127      0.7500      0.2634      0.3891      1.0000      0.9500      0.9000      0.0100           0
soil463         B                  1200.0000      0.0000    147.1785    224.0230      0.7500      0.4333      0.3891      1.0000      0.3000      0.9000      0.2000           0
soil464         C                  1200.0000      0.0000    127.0920    187.0920      0.7500      0.0907      0.3891      1.0000      0.9500      0.5000      0.0100           0
soil465         B                  1200.0000      0.0000    150.2040    252.5564      0.7500      0.3679      0.3891      1.0000      0.9500      0.9000      0.0100           0
soil466         A                  1200.0000      0.0000    149.9220    234.9009      0.7500      0.3152      0.3891      1.0000      0.9500      0.9000      0.0100           0
soil468         D                  1200.0000      0.0000    160.1550    304.8660      0.7500      1.2432      0.3891      1.0000      0.9500      0.1000      0.0100           1
soil469         B                  1200.0000      0.0000    167.7690    327.1720      0.7500      0.8957      0.3891      1.0000      0.0000      0.5000      0.9000           0
soil470         A                  1200.0000      0.0000    149.4795    265.1552      0.7500      0.0913      0.3891      1.0000      0.9500      0.9000      0.0100           0
soil471         B                  1200.0000      0.0000    127.2285    187.2285      0.7500      0.0664      0.3891      1.0000      0.9500      0.9000      0.0100           0
soil472         C                  1200.0000      0.0000    163.0140    326.7635      0.7500      3.8574      0.3891      1.0000      0.9500      0.1000      0.0100           1
soil474         B                  1200.0000      0.0000    159.9165    311.1071      0.7500      0.6251      0.3891      1.0000      0.3000      0.9000      0.2000           0
soil475         A                  1200.0000      0.0000    165.0915    331.1933      0.7500      1.5677      0.3891      1.0000      0.3000      0.9000      0.2000           0
soil476         D                  1200.0000      0.0000    150.8130    259.1316      0.7500      0.7402      0.3891      1.0000      0.0000      0.0500      0.9000           0
soil479         B                  1200.0000      0.0000    158.5995    298.6026      0.7500      0.7548      0.3891      1.0000      0.0000      0.5000      0.9000           0
soil480         A                  1200.0000      0.0000    149.4825    241.7186      0.7500      0.4496      0.3891      1.0000      0.9500      0.1000      0.0100           1
soil481         B                  1200.0000      0.0000    147.1515    232.7559      0.7500      1.0481      0.3891      1.0000      0.0000      0.5000      0.9000           0
soil483         C                  1200.0000      0.0000    160.1910    306.0687      0.7500      1.3967      0.3891      1.0000      0.0000      0.5000      0.9000           0
soil484         B                  1200.0000      0.0000    161.8560    313.6036      0.7500      1.4534      0.3891      1.0000      0.0000      0.5000      0.9000           0
soil485         A                  1200.0000      0.0000    148.7640    268.5605      0.7500      0.1441      0.3891      1.0000      0.9500      0.1000      0.0100           1
soil486         D                  1200.0000      0.0000    167.6940    338.9307      0.7500      2.2225      0.3891      1.0000      0.0000      0.0500      0.9000           0
soil487         B                  1200.0000      0.0000    161.4510    315.3602      0.7500      0.6802      0.3891      1.0000      0.9500      0.1000      0.0100           1
soil488         A                  1200.0000      0.0000    162.4485    306.5599      0.7500      0.9498      0.3891      1.0000      0.9500      0.1000      0.0100           1
soil489         B                  1200.0000      0.0000    158.8845    303.7817      0.7500      1.0743      0.3891      1.0000      0.0000      0.5000      0.9000           0
soil491         C                  1200.0000      0.0000    161.1960    307.1183      0.7500      0.7023      0.3891      1.0000      0.0000      0.5000      0.9000           0
soil492         B                  1200.0000      0.0000    134.5275    190.0591      0.7500      0.1107      0.3891      1.0000      0.9500      0.1000      0.0100           1
soil494         A                  1200.0000      0.0000    144.7950    257.3567      0.7500      0.1653      0.3891      1.0000      0.9500      0.1000      0.0100           1
soil498         D                  1200.0000      0.0000    138.7590    199.9537      0.7500      0.1097      0.3891      1.0000      0.9500      0.0500      0.0100           0
soil499         B                  1200.0000      0.0000    159.2790    296.2366      0.7500      0.9115      0.3891      1.0000      0.0000      0.5000      0.9000           0
soil500         A                  1200.0000      0.0000    150.3510    250.6461      0.7500      0.2739      0.3891      1.0000      0.9500      0.1000      0.0100           1
soil501         B                  1200.0000      0.0000    145.7655    239.1241      0.7500      0.1564      0.3891      1.0000      0.9500      0.1000      0.0100           1
soil503         C                  1200.0000      0.0000    153.3975    283.3179      0.7500      0.6772      0.3891      1.0000      0.0000      0.5000      0.9000           0
soil504         B                  1200.0000      0.0000    154.6110    284.3073      0.7500      0.5595      0.3891      1.0000      0.3000      0.9000      0.2000           0
soil505         A                  1200.0000      0.0000    163.2675    330.5993      0.7500      1.7643      0.3891      1.0000      0.9500      0.1000      0.0100           1
soil506         D                  1200.0000      0.0000    157.9905    302.5016      0.7500      1.7448      0.3891      1.0000      0.0000      0.0500      0.9000           0
soil507         B                  1200.0000      0.0000    158.2185    300.1475      0.7500      0.9756      0.3891      1.0000      0.0000      0.5000      0.9000           0
soil509         A                  1200.0000      0.0000    165.2085    333.0706      0.7500      1.6375      0.3891      1.0000      0.3000      0.9000      0.2000           0
soil510         B                  1200.0000      0.0000    160.8000    304.8536      0.7500      0.9699      0.3891      1.0000      0.9500      0.1000      0.0100           1
soil511         C                  1200.0000      0.0000    158.3895    303.9001      0.7500      0.7755      0.3891      1.0000      0.0000      0.5000      0.9000           0
soil512         B                  1200.0000      0.0000    153.7200    296.2330      0.7500      0.1376      0.3891      1.0000      0.9500      0.9000      0.0100           0
soil514         A                  1200.0000      0.0000    135.8790    220.3862      0.7500      0.1081      0.3891      1.0000      0.9500      0.9000      0.0100           0
soil515         D                  1200.0000      0.0000    149.6610    271.3870      0.7500      0.2437      0.3891      1.0000      0.9500      0.1000      0.0100           1
soil516         B                  1200.0000      0.0000    166.0125    339.2849      0.7500      1.7374      0.3891      1.0000      0.9500      0.1000      0.0100           1
soil517         A                  1200.0000      0.0000    148.1940    266.9333      0.7500      0.3104      0.3891      1.0000      0.9500      0.9000      0.0100           0
soil518         B                  1200.0000      0.0000    152.0865    271.9746      0.7500      0.8517      0.3891      1.0000      0.0000      0.5000      0.9000           0
soil519         C                  1200.0000      0.0000    145.8975    241.4446      0.7500      0.9000      0.3891      1.0000      0.0000      0.5000      0.9000           0
soil521         B                  1200.0000      0.0000    153.2100    247.4524      0.7500      0.3441      0.3891      1.0000      0.9500      0.9000      0.0100           0
soil525         A                  1200.0000      0.0000    143.4285    246.9540      0.7500      0.1089      0.3891      1.0000      0.9500      0.9000      0.0100           0
soil526         D                  1200.0000      0.0000    149.9235    257.9194      0.7500      0.2781      0.3891      1.0000      0.9500      0.1000      0.0100           1
soil528         B                  1200.0000      0.0000    154.5885    301.7192      0.7500      0.6736      0.3891      1.0000      0.9500      0.1000      0.0100           1
soil529         A                  1200.0000      0.0000    152.1000    281.5238      0.7500      0.9475      0.3891      1.0000      0.9500      0.1000      0.0100           1
soil530         B                  1200.0000      0.0000    159.9810    335.2755      0.7500      0.1629      0.3891      1.0000      0.9500      0.1000      0.0100           1
soil532         C                  1200.0000      0.0000    150.6615    261.0712      0.7500      0.1678      0.3891      1.0000      0.9500      0.1000      0.0100           1
soil533         B                  1200.0000      0.0000    162.8055    326.0667      0.7500      0.9288      0.3891      1.0000      0.0000      0.5000      0.9000           0
soil534         A                  1200.0000      0.0000    159.9465    304.5816      0.7500      2.1733      0.3891      1.0000      0.0000      0.9000      0.9000           0
soil535         D                  1200.0000      0.0000    165.5775    335.5155      0.7500      3.2290      0.3891      1.0000      0.0000      0.0500      0.9000           0
soil536         B                  1200.0000      0.0000    167.5155    340.0362      0.7500      3.0033      0.3891      1.0000      0.0000      0.5000      0.9000           0
soil537         A                  1200.0000      0.0000    164.6610    310.1599      0.7500      1.1315      0.3891      1.0000      0.3000      0.9000      0.2000           0
soil538         B                  1200.0000      0.0000    165.5550    322.8453      0.7500      1.2422      0.3891      1.0000      0.0000      0.5000      0.9000           0
soil540         C                  1200.0000      0.0000    154.2435    291.6519      0.7500      0.2191      0.3891      1.0000      0.3000      0.5000      0.2000           0
soil541         B                  1200.0000      0.0000    140.0835    198.5509      0.7500      0.1262      0.3891      1.0000      0.9500      0.9000      0.0100           0
soil542         A                  1200.0000      0.0000    137.0475    199.6698      0.7500      0.1270      0.3891      1.0000      0.9500      0.9000      0.0100           0
soil544         D                  1200.0000      0.0000    153.5040    285.0282      0.7500      0.6769      0.3891      1.0000      0.0000      0.0500      0.9000           0
soil546         B                  1200.0000      0.0000    151.6950    267.6876      0.7500      0.9136      0.3891      1.0000      0.9500      0.1000      0.0100           1
soil548         A                  1200.0000      0.0000    129.4635    196.9722      0.7500      0.1500      0.3891      1.0000      0.9500      0.1000      0.0100           1
soil549         B                  1200.0000      0.0000    136.4115    207.5182      0.7500      0.1346      0.3891      1.0000      0.9500      0.1000      0.0100           1
soil553         C                  1200.0000      0.0000    161.3880    311.5676      0.7500      1.9708      0.3891      1.0000      0.0000      0.0500      0.9000           0
soil555         B                  1200.0000      0.0000    151.5675    232.4290      0.7500      0.1786      0.3891      1.0000      0.9500      0.1000      0.0100           1
soil556         A                  1200.0000      0.0000    161.1915    310.4738      0.7500      0.9768      0.3891      1.0000      0.3000      0.9000      0.2000           0
soil557         D                  1200.0000      0.0000    162.3000    310.4553      0.7500      1.9496      0.3891      1.0000      0.0000      0.0500      0.9000           0
soil559         B                  1200.0000      0.0000    156.2835    294.9540      0.7500      0.5940      0.3891      1.0000      0.3000      0.9000      0.2000           0
soil560         A                  1200.0000      0.0000    165.5250    323.8339      0.7500      0.9309      0.3891      1.0000      0.9500      0.1000      0.0100           1
soil561         B                  1200.0000      0.0000    147.0120    241.4362      0.7500      0.6184      0.3891      1.0000      0.3000      0.9000      0.2000           0
soil562         C                  1200.0000      0.0000    150.2160    243.5239      0.7500      0.1552      0.3891      1.0000      0.9500      0.1000      0.0100           1
soil567         B                  1200.0000      0.0000    165.2520    335.6345      0.7500      2.8683      0.3891      1.0000      0.0000      0.5000      0.9000           0
soil568         A                  1200.0000      0.0000    138.6360    192.4864      0.7500      0.0927      0.3891      1.0000      0.9500      0.1000      0.0100           1
soil570         D                  1200.0000      0.0000    136.4115    212.9166      0.7500      0.2684      0.3891      1.0000      0.9500      0.1000      0.0100           1
soil571         B                  1200.0000      0.0000    134.9820    206.4895      0.7500      0.3208      0.3891      1.0000      0.9500      0.9000      0.0100           0
soil572         A                  1200.0000      0.0000    156.0300    300.7402      0.7500      1.7134      0.3891      1.0000      0.9500      0.1000      0.0100           1
soil573         B                  1200.0000      0.0000    158.6580    309.2294      0.7500      0.9827      0.3891      1.0000      0.0000      0.5000      0.9000           0
soil575         C                  1200.0000      0.0000    154.2030    297.9414      0.7500      0.3716      0.3891      1.0000      0.3000      0.5000      0.2000           0
soil577         B                  1200.0000      0.0000    153.1290    284.1554      0.7500      2.4647      0.3891      1.0000      0.0000      0.5000      0.9000           0
soil578         A                  1200.0000      0.0000    163.8915    313.5350      0.7500      1.9522      0.3891      1.0000      0.0000      0.9000      0.9000           0
soil585         D                  1200.0000      0.0000    150.9180    270.8576      0.7500      0.7116      0.3891      1.0000      0.9500      0.1000      0.0100           1
soil586         B                  1200.0000      0.0000    163.1085    306.6039      0.7500      0.9947      0.3891      1.0000      0.9500      0.1000      0.0100           1
soil588         A                  1200.0000      0.0000    154.2000    289.4635      0.7500      0.4121      0.3891      1.0000      0.9500      0.9000      0.0100           0
soil589         B                  1200.0000      0.0000    155.0925    294.5665      0.7500      0.5093      0.3891      1.0000      0.9500      0.1000      0.0100           1
soil590         C                  1200.0000      0.0000    156.0150    284.6355      0.7500      0.3081      0.3891      1.0000      0.3000      0.5000      0.2000           0
soil593         B                  1200.0000      0.0000    168.7995    317.5418      0.7500      0.7632      0.3891      1.0000      0.9500      0.1000      0.0100           1
soil594         A                  1200.0000      0.0000    152.3250    251.6810      0.7500      0.2738      0.3891      1.0000      0.9500      0.1000      0.0100           1
soil600         D                  1200.0000      0.0000    154.4745    286.3478      0.7500      0.4229      0.3891      1.0000      0.9500      0.1000      0.0100           1
soil601         B                  1200.0000      0.0000    153.3270    289.9878      0.7500      0.1622      0.3891      1.0000      0.9500      0.9000      0.0100           0
soil603         A                  1200.0000      0.0000    152.6925    268.5207      0.7500      0.2075      0.3891      1.0000      0.9500      0.9000      0.0100           0
soil604         B                  1200.0000      0.0000    147.3945    265.1721      0.7500      0.5819      0.3891      1.0000      0.3000      0.9000      0.2000           0
soil605         C                  1200.0000      0.0000    148.4115    259.1629      0.7500      0.3085      0.3891      1.0000      0.3000      0.5000      0.2000           0
soil606         B                  1200.0000      0.0000    147.9465    260.9596      0.7500      1.2945      0.3891      1.0000      0.0000      0.5000      0.9000           0
soil607         A                  1200.0000      0.0000    147.6750    255.0477      0.7500      0.9257      0.3891      1.0000      0.3000      0.9000      0.2000           0
soil608         D                  1200.0000      0.0000    126.0765    167.1827      0.7500      0.0866      0.3891      1.0000      0.9500      0.1000      0.0100           1
soil609         B                  1200.0000      0.0000    146.3625    264.2225      0.7500      0.2668      0.3891      1.0000      0.9500      0.1000      0.0100           1
soil610         A                  1200.0000      0.0000    153.0030    283.9411      0.7500      0.3765      0.3891      1.0000      0.9500      0.1000      0.0100           1
soil611         B                  1200.0000      0.0000    159.4935    308.2979      0.7500      1.9133      0.3891      1.0000      0.9500      0.1000      0.0100           1
soil612         C                  1200.0000      0.0000    152.2920    274.7849      0.7500      0.6822      0.3891      1.0000      0.9500      0.1000      0.0100           1
soil614         B                  1200.0000      0.0000    154.3335    250.1777      0.7500      0.1989      0.3891      1.0000      0.9500      0.1000      0.0100           1
soil615         A                  1200.0000      0.0000    155.1660    281.1913      0.7500      0.4696      0.3891      1.0000      0.9500      0.1000      0.0100           1
soil616         D                  1200.0000      0.0000    160.6350    299.8693      0.7500      0.5689      0.3891      1.0000      0.0000      0.0500      0.9000           0
soil617         B                  1200.0000      0.0000    152.2665    276.6973      0.7500      0.3166      0.3891      1.0000      0.9500      0.1000      0.0100           1
soil618         A                  1200.0000      0.0000    155.1330    288.6977      0.7500      0.3829      0.3891      1.0000      0.9500      0.1000      0.0100           1
soil619         B                  1200.0000      0.0000    152.6730    288.7531      0.7500      1.7899      0.3891      1.0000      0.0000      0.5000      0.9000           0
soil620         C                  1200.0000      0.0000    163.1460    303.0214      0.7500      0.2537      0.3891      1.0000      0.9500      0.1000      0.0100           1
soil621         B                  1200.0000      0.0000    157.0980    299.0294      0.7500      0.4255      0.3891      1.0000      0.3000      0.9000      0.2000           0
soil622         A                  1200.0000      0.0000    124.4910    172.3707      0.7500      0.1573      0.3891      1.0000      0.9500      0.9000      0.0100           0
soil623         D                  1200.0000      0.0000    162.6150    318.1541      0.7500      2.4520      0.3891      1.0000      0.0000      0.0500      0.9000           0
soil624         B                  1200.0000      0.0000    159.6705    309.9111      0.7500      1.3349      0.3891      1.0000      0.0000      0.5000      0.9000           0
soil625         A                  1200.0000      0.0000    129.6585    172.5678      0.7500      0.1068      0.3891      1.0000      0.9500      0.1000      0.0100           1
soil626         B                  1200.0000      0.0000    145.5990    259.6440      0.7500      0.3012      0.3891      1.0000      0.9500      0.9000      0.0100           0
soil627         C                  1200.0000      0.0000    157.7055    305.7659      0.7500      2.0140      0.3891      1.0000      0.0000      0.0500      0.9000           0
soil629         B                  1200.0000      0.0000    152.1195    249.4226      0.7500      0.4146      0.3891      1.0000      0.3000      0.9000      0.2000           0
soil630         A                  1200.0000      0.0000    147.8340    257.2058      0.7500      0.2694      0.3891      1.0000      0.9500      0.1000      0.0100           1
soil631         D                  1200.0000      0.0000    163.7490    322.9776      0.7500      1.9466      0.3891      1.0000      0.9500      0.1000      0.0100           1
soil632         B                  1200.0000      0.0000    149.2290    247.1323      0.7500      0.1404      0.3891      1.0000      0.9500      0.1000      0.0100           1
soil634         A                  1200.0000      0.0000    162.1380    310.5250      0.7500      1.2020      0.3891      1.0000      0.3000      0.9000      0.2000           0
soil635         B                  1200.0000      0.0000    138.4095    205.8722      0.7500      0.1919      0.3891      1.0000      0.9500      0.9000      0.0100           0
soil636         C                  1200.0000      0.0000    152.3085    225.2301      0.7500      0.7092      0.3891      1.0000      0.9500      0.1000      0.0100           1
soil637         B                  1200.0000      0.0000    164.7255    313.6107      0.7500      0.4357      0.3891      1.0000      0.3000      0.9000      0.2000           0
soil642         A                  1200.0000      0.0000    159.3375    302.0963      0.7500      1.3852      0.3891      1.0000      0.3000      0.9000      0.2000           0
soil643         D                  1200.0000      0.0000    129.3945    189.3945      0.7500      0.1098      0.3891      1.0000      0.9500      0.0500      0.0100           0
soil645         B                  1200.0000      0.0000    137.4930    206.7937      0.7500      0.1870      0.3891      1.0000      0.9500      0.9000      0.0100           0
soil646         A                  1200.0000      0.0000    131.2860    189.3466      0.7500      0.1154      0.3891      1.0000      0.9500      0.9000      0.0100           0
soil647         B                  1200.0000      0.0000    141.8145    216.6321      0.7500      0.1073      0.3891      1.0000      0.9500      0.9000      0.0100           0
soil648         C                  1200.0000      0.0000    156.9285    291.4849      0.7500      0.5100      0.3891      1.0000      0.3000      0.5000      0.2000           0
soil651         B                  1200.0000      0.0000    150.0870    233.9360      0.7500      0.7623      0.3891      1.0000      0.0000      0.5000      0.9000           0
soil654         A                  1200.0000      0.0000    160.4370    314.0483      0.7500      1.5487      0.3891      1.0000      0.9500      0.1000      0.0100           1
soil656         D                  1200.0000      0.0000    151.3290    281.4860      0.7500      0.3551      0.3891      1.0000      0.3000      0.0500      0.2000           0
soil657         B                  1200.0000      0.0000    162.0180    330.6454      0.7500      1.5505      0.3891      1.0000      0.0000      0.5000      0.9000           0
soil659         A                  1200.0000      0.0000    166.8750    341.8719      0.7500      2.5857      0.3891      1.0000      0.0000      0.9000      0.9000           0
soil660         B                  1200.0000      0.0000    157.6560    295.4639      0.7500      0.4772      0.3891      1.0000      0.9500      0.1000      0.0100           1
soil661         C                  1200.0000      0.0000    150.1950    261.2462      0.7500      1.4845      0.3891      1.0000      0.0000      0.5000      0.9000           0
soil662         B                  1200.0000      0.0000    147.7440    267.0188      0.7500      0.5565      0.3891      1.0000      0.9500      0.1000      0.0100           1
soil664         A                  1200.0000      0.0000    165.4710    315.4102      0.7500      1.2345      0.3891      1.0000      0.9500      0.1000      0.0100           1
soil665         D                  1200.0000      0.0000    163.5945    315.6542      0.7500      2.0990      0.3891      1.0000      0.9500      0.1000      0.0100           1
soil666         B                  1200.0000      0.0000    152.5275    284.0627      0.7500      0.3689      0.3891      1.0000      0.9500      0.1000      0.0100           1
soil667         A                  1200.0000      0.0000    163.6650    331.5853      0.7500      3.3709      0.3891      1.0000      0.0000      0.9000      0.9000           0
soil668         B                  1200.0000      0.0000    153.2670    284.9957      0.7500      0.0946      0.3891      1.0000      0.9500      0.1000      0.0100           1
soil669         C                  1200.0000      0.0000    163.9410    318.8959      0.7500      0.8501      0.3891      1.0000      0.9500      0.1000      0.0100           1
soil670         B                  1200.0000      0.0000    161.5380    306.6006      0.7500      1.8868      0.3891      1.0000      0.0000      0.5000      0.9000           0
soil671         A                  1200.0000      0.0000    164.5695    321.5274      0.7500      2.8477      0.3891      1.0000      0.0000      0.9000      0.9000           0
soil672         D                  1200.0000      0.0000    161.9220    327.6277      0.7500      2.3649      0.3891      1.0000      0.0000      0.0500      0.9000           0
soil676         B                  1200.0000      0.0000    150.7770    275.0079      0.7500      0.2817      0.3891      1.0000      0.9500      0.1000      0.0100           1
soil677         A                  1200.0000      0.0000    161.0790    321.0704      0.7500      1.1751      0.3891      1.0000      0.3000      0.9000      0.2000           0
soil678         B                  1200.0000      0.0000    150.8160    268.2190      0.7500      0.2457      0.3891      1.0000      0.9500      0.1000      0.0100           1
soil679         C                  1200.0000      0.0000    147.8970    281.7242      0.7500      2.8881      0.3891      1.0000      0.0000      0.0500      0.9000           0
soil680         B                  1200.0000      0.0000    164.0625    322.3679      0.7500      2.6572      0.3891      1.0000      0.0000      0.5000      0.9000           0
soil681         A                  1200.0000      0.0000    163.5870    319.4404      0.7500      2.2254      0.3891      1.0000      0.0000      0.9000      0.9000           0
soil682         D                  1200.0000      0.0000    153.9660    236.1734      0.7500      0.0844      0.3891      1.0000      0.9500      0.1000      0.0100           1
soil684         A                  1200.0000      0.0000    153.0300    265.6642      0.7500      0.7153      0.3891      1.0000      0.9500      0.1000      0.0100           1
soil685         B                  1200.0000      0.0000    163.9395    322.9544      0.7500      1.4594      0.3891      1.0000      0.0000      0.5000      0.9000           0
soil686         C                  1200.0000      0.0000    162.2760    308.5886      0.7500      1.6511      0.3891      1.0000      0.0000      0.5000      0.9000           0
soil688         B                  1200.0000      0.0000    131.1300    186.6811      0.7500      0.1175      0.3891      1.0000      0.9500      0.9000      0.0100           0
soil689         A                  1200.0000      0.0000    142.9005    247.9186      0.7500      0.3724      0.3891      1.0000      0.9500      0.9000      0.0100           0
soil690         D                  1200.0000      0.0000    163.7985    330.6662      0.7500      2.8004      0.3891      1.0000      0.0000      0.0500      0.9000           0
soil691         B                  1200.0000      0.0000    158.5770    312.0327      0.7500      4.8187      0.3891      1.0000      0.0000      0.5000      0.9000           0
soil692         A                  1200.0000      0.0000    157.3740    292.9667      0.7500      0.7015      0.3891      1.0000      0.3000      0.9000      0.2000           0
soil693         B                  1200.0000      0.0000    157.2930    293.8447      0.7500      0.5261      0.3891      1.0000      0.3000      0.9000      0.2000           0
soil694         C                  1200.0000      0.0000    149.2305    260.7355      0.7500      0.2345      0.3891      1.0000      0.9500      0.1000      0.0100           1
soil696         B                  1200.0000      0.0000    156.7575    296.7169      0.7500      0.3371      0.3891      1.0000      0.9500      0.9000      0.0100           0
soil698         A                  1200.0000      0.0000    135.9660    199.1212      0.7500      0.1179      0.3891      1.0000      0.9500      0.9000      0.0100           0
soil703         D                  1200.0000      0.0000    145.9320    265.8556      0.7500      0.1686      0.3891      1.0000      0.9500      0.1000      0.0100           1
soil705         B                  1200.0000      0.0000    156.1260    286.6311      0.7500      0.2055      0.3891      1.0000      0.9500      0.1000      0.0100           1
soil707         A                  1200.0000      0.0000    148.1115    270.8706      0.7500      0.6183      0.3891      1.0000      0.9500      0.9000      0.0100           0
soil708         B                  1200.0000      0.0000    145.8195    251.7187      0.7500      1.3106      0.3891      1.0000      0.0000      0.5000      0.9000           0
soil709         C                  1200.0000      0.0000    153.4545    260.7164      0.7500      0.2382      0.3891      1.0000      0.9500      0.1000      0.0100           1
soil712         B                  1200.0000      0.0000    148.5900    233.5160      0.7500      0.1740      0.3891      1.0000      0.9500      0.1000      0.0100           1
soil713         A                  1200.0000      0.0000    153.0750    269.8657      0.7500      0.2776      0.3891      1.0000      0.9500      0.9000      0.0100           0
soil714         D                  1200.0000      0.0000    162.9225    319.5344      0.7500      0.8222      0.3891      1.0000      0.0000      0.0500      0.9000           0
soil715         B                  1200.0000      0.0000    156.4650    264.5995      0.7500      0.2991      0.3891      1.0000      0.9500      0.1000      0.0100           1
soil718         A                  1200.0000      0.0000    151.2540    289.2859      0.7500      0.3396      0.3891      1.0000      0.9500      0.9000      0.0100           0
soil724         B                  1200.0000      0.0000    157.2975    294.2296      0.7500      0.6532      0.3891      1.0000      0.3000      0.9000      0.2000           0
soil728         C                  1200.0000      0.0000    154.9605    294.2240      0.7500      0.4652      0.3891      1.0000      0.3000      0.5000      0.2000           0
soil729         B                  1200.0000      0.0000    151.6410    284.0455      0.7500      0.2656      0.3891      1.0000      0.9500      0.1000      0.0100           1
soil730         A                  1200.0000      0.0000    155.5425    319.0428      0.7500      1.7464      0.3891      1.0000      0.3000      0.9000      0.2000           0
soil731         D                  1200.0000      0.0000    151.8960    292.9490      0.7500      0.1545      0.3891      1.0000      0.9500      0.1000      0.0100           1
soil734         B                  1200.0000      0.0000    151.2075    277.1421      0.7500      0.2820      0.3891      1.0000      0.9500      0.1000      0.0100           1
soil735         A                  1200.0000      0.0000    162.5340    318.6083      0.7500      1.1821      0.3891      1.0000      0.3000      0.9000      0.2000           0
soil736         B                  1200.0000      0.0000    160.7055    319.3017      0.7500      0.9579      0.3891      1.0000      0.0000      0.5000      0.9000           0
soil738         C                  1200.0000      0.0000    149.6865    272.8619      0.7500      0.7642      0.3891      1.0000      0.0000      0.5000      0.9000           0
soil741         B                  1200.0000      0.0000    162.5115    326.2121      0.7500      1.2331      0.3891      1.0000      0.0000      0.5000      0.9000           0
[...]
soil12614       D                  1200.0000      0.0000    158.3895    321.8428      1.0000      5.9240      0.3891      1.0000      0.0000      0.0500      0.9000           0
soil12615       B                  1200.0000      0.0000    159.1710    325.3327      1.0000      8.7424      0.3891      1.0000      0.0000      0.5000      0.9000           0
soil12616       A                  1200.0000      0.0000    145.4295    238.6322      1.0000      5.4804      0.3891      1.0000      0.0000      0.9000      0.9000           0
soil12617       B                  1200.0000      0.0000    158.5635    288.1550      1.0000      0.5728      0.3891      1.0000      0.3000      0.9000      0.2000           0
soil12618       C                  1200.0000      0.0000    146.8815    257.7360      1.0000     10.8318      0.3891      1.0000      0.0000      0.0500      0.9000           0
soil12619       B                  1200.0000      0.0000    155.4270    280.0207      1.0000      4.3248      0.3891      1.0000      0.0000      0.5000      0.9000           0
soil12620       A                  1200.0000      0.0000    154.5120    278.4783      1.0000      9.2071      0.3891      1.0000      0.0000      0.9000      0.9000           0
soil12621       D                  1200.0000      0.0000    148.0830    267.5220      1.0000      3.6961      0.3891      1.0000      0.0000      0.0500      0.9000           0
soil12622       B                  1200.0000      0.0000    153.6870    282.3882      1.0000      9.0785      0.3891      1.0000      0.0000      0.5000      0.9000           0
soil12623       A                  1200.0000      0.0000    151.5390    289.4253      1.0000      8.0042      0.3891      1.0000      0.0000      0.9000      0.9000           0
soil12624       B                  1200.0000      0.0000    147.9450    265.2823      1.0000      6.1085      0.3891      1.0000      0.0000      0.5000      0.9000           0
soil12625       C                  1200.0000      0.0000    147.9150    261.4047      1.0000      0.7436      0.3891      1.0000      0.0000      0.5000      0.9000           0
soil12626       B                  1200.0000      0.0000    146.4735    265.6751      1.0000      7.5556      0.3891      1.0000      0.0000      0.5000      0.9000           0
soil12627       A                  1200.0000      0.0000    144.0060    253.8116      1.0000      0.4297      0.3891      1.0000      0.9500      0.9000      0.0100           0
soil12628       D                  1200.0000      0.0000    146.4990    253.3119      1.0000      0.5174      0.3891      1.0000      0.0000      0.0500      0.9000           0
soil12629       B                  1200.0000      0.0000    147.6240    257.6342      1.0000      4.4619      0.3891      1.0000      0.0000      0.5000      0.9000           0
soil12630       A                  1200.0000      0.0000    149.8830    272.6507      1.0000      7.7484      0.3891      1.0000      0.0000      0.9000      0.9000           0
soil12631       B                  1200.0000      0.0000    151.3470    270.1621      1.0000      4.1022      0.3891      1.0000      0.0000      0.5000      0.9000           0
soil12632       C                  1200.0000      0.0000    151.4385    281.5016      1.0000     10.9626      0.3891      1.0000      0.0000      0.0500      0.9000           0
soil12633       B                  1200.0000      0.0000    146.6745    245.5723      1.0000      5.9067      0.3891      1.0000      0.0000      0.5000      0.9000           0
soil12634       A                  1200.0000      0.0000    147.3540    249.0630      1.0000      7.9676      0.3891      1.0000      0.0000      0.9000      0.9000           0
soil12635       D                  1200.0000      0.0000    148.2705    247.6899      1.0000      8.7451      0.3891      1.0000      0.0000      0.0500      0.9000           0
soil12636       B                  1200.0000      0.0000    150.0540    257.2435      1.0000     10.8211      0.3891      1.0000      0.0000      0.5000      0.9000           0
soil12637       A                  1200.0000      0.0000    146.5245    266.5215      1.0000     10.3800      0.3891      1.0000      0.0000      0.9000      0.9000           0
soil12638       B                  1200.0000      0.0000    149.2650    252.7781      1.0000      8.1297      0.3891      1.0000      0.0000      0.5000      0.9000           0
soil12639       C                  1200.0000      0.0000    147.0435    259.1529      1.0000      7.0643      0.3891      1.0000      0.0000      0.0500      0.9000           0
soil12640       B                  1200.0000      0.0000    146.7435    251.7823      1.0000      8.5255      0.3891      1.0000      0.0000      0.5000      0.9000           0
soil12641       A                  1200.0000      0.0000    152.6115    265.6622      1.0000     13.0125      0.3891      1.0000      0.0000      0.9000      0.9000           0
soil12642       D                  1200.0000      0.0000    152.4585    281.4404      1.0000     21.7056      0.3891      1.0000      0.0000      0.0500      0.9000           0
soil12643       B                  1200.0000      0.0000    148.7700    268.6469      1.0000     22.7898      0.3891      1.0000      0.0000      0.5000      0.9000           0
soil12644       A                  1200.0000      0.0000    147.1455    249.7666      1.0000     21.3655      0.3891      1.0000      0.0000      0.9000      0.9000           0
soil12645       B                  1200.0000      0.0000    154.8630    295.3017      1.0000     18.9065      0.3891      1.0000      0.0000      0.5000      0.9000           0
soil12646       C                  1200.0000      0.0000    155.8275    275.9845      1.0000     20.1108      0.3891      1.0000      0.0000      0.0500      0.9000           0
soil12647       B                  1200.0000      0.0000    150.9900    266.2891      1.0000     12.7005      0.3891      1.0000      0.0000      0.5000      0.9000           0
soil12648       A                  1200.0000      0.0000    149.9490    241.8911      1.0000     17.0904      0.3891      1.0000      0.0000      0.9000      0.9000           0
soil12649       D                  1200.0000      0.0000    152.7930    306.6788      1.0000     19.9794      0.3891      1.0000      0.0000      0.0500      0.9000           0
soil12650       B                  1200.0000      0.0000    150.4485    271.4771      1.0000     14.6221      0.3891      1.0000      0.0000      0.5000      0.9000           0
soil12651       A                  1200.0000      0.0000    143.7930    270.7920      1.0000      0.2385      0.3891      1.0000      0.9500      0.9000      0.0100           0
soil12652       B                  1200.0000      0.0000    158.4585    321.5460      1.0000      0.3310      0.3891      1.0000      0.9500      0.9000      0.0100           0
soil12653       C                  1200.0000      0.0000    141.1950    249.8259      1.0000      0.4440      0.3891      1.0000      0.3000      0.5000      0.2000           0
soil12655       B                  1200.0000      0.0000    155.3010    286.4182      1.0000      0.9234      0.3891      1.0000      0.0000      0.5000      0.9000           0
soil12657       A                  1200.0000      0.0000    156.7125    304.5153      1.0000      1.2020      0.3891      1.0000      0.3000      0.9000      0.2000           0
soil12658       D                  1200.0000      0.0000    157.3050    304.0923      1.0000      0.4522      0.3891      1.0000      0.0000      0.0500      0.9000           0
soil12659       B                  1200.0000      0.0000    150.2025    286.3564      1.0000      0.8576      0.3891      1.0000      0.0000      0.5000      0.9000           0
soil12660       A                  1200.0000      0.0000    153.9540    295.1815      1.0000      1.1264      0.3891      1.0000      0.3000      0.9000      0.2000           0
soil12661       B                  1200.0000      0.0000    160.6335    318.6516      1.0000      1.0302      0.3891      1.0000      0.0000      0.5000      0.9000           0
soil12662       C                  1200.0000      0.0000    153.5355    278.0641      1.0000      0.5223      0.3891      1.0000      0.9500      0.1000      0.0100           1
soil12663       B                  1200.0000      0.0000    161.8650    304.0779      1.0000      0.6094      0.3891      1.0000      0.3000      0.9000      0.2000           0
soil12664       A                  1200.0000      0.0000    161.7405    310.0955      1.0000     12.8553      0.3891      1.0000      0.9500      0.1000      0.0100           1
soil12665       D                  1200.0000      0.0000    135.3075    199.2326      1.0000      0.1744      0.3891      1.0000      0.9500      0.0500      0.0100           0
soil12666       B                  1200.0000      0.0000    134.5710    207.3467      1.0000      3.9215      0.3891      1.0000      0.0000      0.5000      0.9000           0
soil12667       A                  1200.0000      0.0000    127.5450    197.5270      1.0000      6.0658      0.3891      1.0000      0.0000      0.9000      0.9000           0
soil12668       B                  1200.0000      0.0000    130.5060    198.4737      1.0000      5.3864      0.3891      1.0000      0.0000      0.5000      0.9000           0
soil12669       C                  1200.0000      0.0000    127.9455    182.1810      1.0000      6.2539      0.3891      1.0000      0.0000      0.0500      0.9000           0
soil12670       B                  1200.0000      0.0000    127.6215    188.6045      1.0000      6.6840      0.3891      1.0000      0.0000      0.5000      0.9000           0
soil12671       A                  1200.0000      0.0000    124.3740    179.4068      1.0000      6.3621      0.3891      1.0000      0.0000      0.9000      0.9000           0
soil12672       D                  1200.0000      0.0000    130.7295    208.0090      1.0000      9.0619      0.3891      1.0000      0.0000      0.0500      0.9000           0
soil12673       B                  1200.0000      0.0000    133.3890    198.9931      1.0000      8.5856      0.3891      1.0000      0.0000      0.5000      0.9000           0
soil12674       A                  1200.0000      0.0000    131.2155    218.5036      1.0000      9.5982      0.3891      1.0000      0.0000      0.9000      0.9000           0
soil12675       B                  1200.0000      0.0000    135.9975    202.7531      1.0000      9.0573      0.3891      1.0000      0.0000      0.5000      0.9000           0
soil12676       C                  1200.0000      0.0000    131.0205    171.5631      1.0000      8.4141      0.3891      1.0000      0.0000      0.0500      0.9000           0
soil12677       B                  1200.0000      0.0000    156.5385    301.3943      1.0000      1.4849      0.3891      1.0000      0.0000      0.5000      0.9000           0
soil12678       A                  1200.0000      0.0000    152.9340    267.7044      1.0000      3.8270      0.3891      1.0000      0.0000      0.9000      0.9000           0
soil12679       D                  1200.0000      0.0000    172.3080    348.6994      1.0000     11.8353      0.3891      1.0000      0.0000      0.0500      0.9000           0
soil12680       B                  1200.0000      0.0000    146.4225    249.6365      1.0000      3.2232      0.3891      1.0000      0.0000      0.5000      0.9000           0
soil12681       A                  1200.0000      0.0000    147.2190    259.1425      1.0000      5.2630      0.3891      1.0000      0.0000      0.9000      0.9000           0
soil12682       B                  1200.0000      0.0000    158.2080    315.8258      1.0000     14.5991      0.3891      1.0000      0.0000      0.5000      0.9000           0
soil12683       C                  1200.0000      0.0000    150.6810    279.5735      1.0000     12.7550      0.3891      1.0000      0.0000      0.0500      0.9000           0
soil12684       B                  1200.0000      0.0000    153.4725    281.8983      0.7500      2.3887      0.3891      1.0000      0.0000      0.5000      0.9000           0
soil12685       A                  1200.0000      0.0000    167.2800    349.1060      1.0000      7.3869      0.3891      1.0000      0.0000      0.9000      0.9000           0
soil12686       D                  1200.0000      0.0000    162.5820    315.4421      1.0000      1.1028      0.3891      1.0000      0.9500      0.1000      0.0100           1
soil12687       B                  1200.0000      0.0000    154.5075    295.0269      1.0000      0.7435      0.3891      1.0000      0.0000      0.5000      0.9000           0
soil12688       A                  1200.0000      0.0000    161.7195    316.6956      1.0000      1.7969      0.3891      1.0000      0.3000      0.9000      0.2000           0
soil12689       B                  1200.0000      0.0000    154.5135    314.1271      0.7500      2.9375      0.3891      1.0000      0.9500      0.1000      0.0100           1
soil12690       C                  1200.0000      0.0000    158.6385    305.6112      0.7500      3.2760      0.3891      1.0000      0.9500      0.1000      0.0100           1
soil12691       B                  1200.0000      0.0000    160.4130    330.6231      1.0000      4.8901      0.3891      1.0000      0.0000      0.5000      0.9000           0
soil12692       A                  1200.0000      0.0000    158.4420    323.1134      1.0000      5.8830      0.3891      1.0000      0.0000      0.9000      0.9000           0
soil12693       D                  1200.0000      0.0000    169.6560    328.6532      1.0000      5.4873      0.3891      1.0000      0.0000      0.0500      0.9000           0
soil12694       B                  1200.0000      0.0000    152.0820    269.1318      1.0000      0.1406      0.3891      1.0000      0.9500      0.1000      0.0100           1
soil12695       A                  1200.0000      0.0000    145.5360    248.2227      0.7500      0.4287      0.3891      1.0000      0.9500      0.9000      0.0100           0
soil12696       B                  1200.0000      0.0000    162.9735    318.4188      1.0000      4.8598      0.3891      1.0000      0.0000      0.5000      0.9000           0
soil12697       C                  1200.0000      0.0000    169.6065    358.5138      1.0000     10.4542      0.3891      1.0000      0.0000      0.0500      0.9000           0
soil12698       B                  1200.0000      0.0000    156.1530    299.5671      1.0000      9.0679      0.3891      1.0000      0.0000      0.5000      0.9000           0
soil12699       A                  1200.0000      0.0000    160.7415    305.8332      1.0000      7.7777      0.3891      1.0000      0.0000      0.9000      0.9000           0
soil12700       D                  1200.0000      0.0000    163.8225    314.7034      1.0000      6.9421      0.3891      1.0000      0.0000      0.0500      0.9000           0
soil12701       B                  1200.0000      0.0000    137.0175    206.8274      1.0000      0.0888      0.3891      1.0000      0.9500      0.9000      0.0100           0
soil12702       A                  1200.0000      0.0000    158.1180    296.4692      1.0000      1.9413      0.3891      1.0000      0.0000      0.9000      0.9000           0
soil12703       B                  1200.0000      0.0000    163.6680    306.2408      1.0000      0.9022      0.3891      1.0000      0.0000      0.5000      0.9000           0
soil12704       C                  1200.0000      0.0000    168.1635    341.0418      1.0000     10.8347      0.3891      1.0000      0.0000      0.0500      0.9000           0
soil12705       B                  1200.0000      0.0000    130.0155    193.0887      1.0000      1.3990      0.3891      1.0000      0.0000      0.5000      0.9000           0
soil12706       A                  1200.0000      0.0000    149.8950    223.9304      1.0000      0.0683      0.3891      1.0000      0.9500      0.9000      0.0100           0
soil12707       D                  1200.0000      0.0000    140.3895    206.8673      1.0000      0.1129      0.3891      1.0000      0.9500      0.0500      0.0100           0
soil12708       B                  1200.0000      0.0000    148.9950    232.1753      1.0000     11.5160      0.3891      1.0000      0.0000      0.5000      0.9000           0
soil12709       A                  1200.0000      0.0000    162.8235    328.2898      1.0000      0.2869      0.3891      1.0000      0.9500      0.9000      0.0100           0
soil12710       B                  1200.0000      0.0000    167.3475    345.3300      1.0000     15.7706      0.3891      1.0000      0.0000      0.5000      0.9000           0
soil12711       C                  1200.0000      0.0000    165.8925    347.2877      1.0000      7.7357      0.3891      1.0000      0.0000      0.0500      0.9000           0
soil8334        A                  1200.0000      0.0000    160.7790    325.2001      1.0000     14.7565      0.3891      1.0000      0.0000      0.9000      0.9000           0
soil7858        B                  1200.0000      0.0000    158.7300    316.7268      1.0000      4.7646      0.3891      1.0000      0.0000      0.5000      0.9000           0
soil12712       B                  1200.0000      0.0000    148.0455    264.9594      1.0000      2.6650      0.3891      1.0000      0.0000      0.5000      0.9000           0
soil12713       A                  1200.0000      0.0000    147.1695    271.2921      1.0000      2.5780      0.3891      1.0000      0.0000      0.9000      0.9000           0
soil12714       D                  1200.0000      0.0000    173.2440    350.7969      0.7500      2.0036      0.3891      1.0000      0.0000      0.0500      0.9000           0
soil12715       B                  1200.0000      0.0000    158.9010    297.4694      1.0000      6.9993      0.3891      1.0000      0.0000      0.5000      0.9000           0
soil12716       A                  1200.0000      0.0000    150.0225    271.8556      1.0000      0.5000      0.3891      1.0000      0.9500      0.9000      0.0100           0
soil12717       B                  1200.0000      0.0000    151.4520    287.7514      0.7500      0.7158      0.3891      1.0000      0.0000      0.5000      0.9000           0
soil12718       B                  1200.0000      0.0000    165.0045    336.7657      1.0000      0.8064      0.3891      1.0000      0.0000      0.5000      0.9000           0
soil4806        A                  1200.0000      0.0000    160.7295    320.4334      1.0000     23.2029      0.3891      1.0000      0.0000      0.9000      0.9000           0
soil10662       B                  1200.0000      0.0000    134.8740    223.3559      1.0000      0.2650      0.3891      1.0000      0.9500      0.9000      0.0100           0
soil10662       B                  1200.0000      0.0000    134.8740    223.3559      1.0000      0.2706      0.3891      1.0000      0.9500      0.9000      0.0100           0
soil10662       B                  1200.0000      0.0000    134.8740    223.3559      1.0000      0.1429      0.3891      1.0000      0.9500      0.9000      0.0100           0
soil10662       B                  1200.0000      0.0000    134.8740    223.3559      1.0000      0.1555      0.3891      1.0000      0.9500      0.9000      0.0100           0
soil10662       B                  1200.0000      0.0000    134.8740    223.3559      1.0000      0.2557      0.3891      1.0000      0.9500      0.9000      0.0100           0
soil10662       B                  1200.0000      0.0000    134.8740    223.3559      1.0000      0.1537      0.3891      1.0000      0.9500      0.9000      0.0100           0
