 HAFL_pntsource            SWAT+ Jan 11 2024        MODULAR Rev 2024.61.0                                 
 ob_typ         props       area_ha   flash_idx       mean          max        p.1               p.5           p1                 p2             p3             p5            p10            p15            p20            p25            p30            p35            p40            p45            p50            p55            p60            p65            p70            p75            p80            p85            p90            p95            p97            p98            p99            min 
 chandeg            1   28.03460      1.3496432E-08  0.0000000E+00  1.2923325E-04  7.9535836E-05  6.2744490E-05  4.8484300E-05  4.1688767E-05  3.0381701E-05  2.2784492E-05  1.1701689E-05  5.2693658E-06  1.6689004E-06  1.5341174E-08  1.3544094E-09  2.5454711E-10  1.1321634E-12  5.8914455E-14  5.3671904E-16  2.6236136E-18  4.2711952E-21  1.2695598E-23  3.7430660E-27  3.0908897E-31  4.2684036E-37  0.0000000E+00  0.0000000E+00  0.0000000E+00  0.0000000E+00  0.0000000E+00  0.0000000E+00  0.0000000E+00
 chandeg            3   7.309900      1.5861440E-08  0.0000000E+00  8.2026861E-05  5.0482948E-05  3.9825154E-05  3.0773932E-05  2.6460673E-05  1.9283862E-05  1.4461764E-05  7.4272907E-06  3.3445697E-06  1.0592839E-06  9.7372306E-09  8.5960861E-10  1.6159257E-10  7.1856274E-13  3.7402996E-14  3.4054690E-16  1.6664186E-18  2.7127863E-21  8.0574813E-24  2.3765120E-27  1.9617508E-31  2.7085671E-37  0.0000000E+00  0.0000000E+00  0.0000000E+00  0.0000000E+00  0.0000000E+00  0.0000000E+00  0.0000000E+00
 chandeg           26   29.21370      1.4753465E-08  0.0000000E+00  1.5541579E-04  9.5649739E-05  7.5456475E-05  5.8307185E-05  5.0134880E-05  3.6537014E-05  2.7400616E-05  1.4072441E-05  6.3369362E-06  2.0070183E-06  1.8448038E-08  1.6288773E-09  3.0628433E-10  1.3615582E-12  7.0848899E-14  6.4557564E-16  3.1555315E-18  5.1394876E-21  1.5265323E-23  4.5041242E-27  3.7190003E-31  5.1330845E-37  0.0000000E+00  0.0000000E+00  0.0000000E+00  0.0000000E+00  0.0000000E+00  0.0000000E+00  0.0000000E+00
 chandeg           77   33.74580      1.4501954E-08  0.0000000E+00  2.1712141E-04  1.3362612E-04  1.0541540E-04  8.1457219E-05  7.0040216E-05  5.1043520E-05  3.8279639E-05  1.9659705E-05  8.8529250E-06  2.8038762E-06  2.5770964E-08  2.2757387E-09  4.2769430E-10  1.9021423E-12  9.9011653E-14  9.0176695E-16  4.4069515E-18  7.1772143E-21  2.1326645E-23  6.2799271E-27  5.1826446E-31  7.1708626E-37  0.0000000E+00  0.0000000E+00  0.0000000E+00  0.0000000E+00  0.0000000E+00  0.0000000E+00  0.0000000E+00
 chandeg          140   236.5787      1.0881459E-08  0.0000000E+00  2.2578129E-04  1.4930985E-04  1.2085962E-04  9.1455200E-05  7.5469099E-05  5.8841109E-05  3.9877410E-05  2.0443829E-05  9.2060236E-06  2.9157100E-06  2.6802907E-08  2.3660787E-09  4.4494006E-10  1.9778779E-12  1.0288455E-13  9.3794277E-16  4.6022501E-18  9.8710201E-21  2.2181181E-23  6.9118868E-27  9.0724362E-31  7.4576965E-37  0.0000000E+00  0.0000000E+00  0.0000000E+00  0.0000000E+00  0.0000000E+00  0.0000000E+00  0.0000000E+00
 chandeg          147  0.1672000      8.0480483E-10  0.0000000E+00  2.8704971E-03  8.8491652E-06  7.3141355E-06  5.6745175E-06  4.4728358E-06  3.4873433E-06  2.3885486E-06  1.2242025E-06  5.4561457E-07  1.7280567E-07  1.5882667E-09  1.4025102E-10  2.6385980E-11  1.1722191E-13  6.0987723E-15  5.5558803E-17  2.7254394E-19  5.8526063E-22  1.3147045E-24  4.0985474E-28  5.3783192E-32  4.4182610E-38  0.0000000E+00  0.0000000E+00  0.0000000E+00  0.0000000E+00  0.0000000E+00  0.0000000E+00  0.0000000E+00
 chandeg          149  0.2168000      3.7976645E-07  0.0000000E+00  3.4369426E-03  8.7989629E-06  7.2110702E-06  5.4520619E-06  4.3106506E-06  3.2317987E-06  2.2856741E-06  1.1429599E-06  4.4104863E-07  2.6652685E-07  2.2216079E-07  1.2126033E-07  4.4113442E-09  3.2849549E-11  4.7802326E-12  6.0146370E-15  3.1665895E-18  1.7266423E-20  1.9434290E-24  2.9542655E-29  1.4630515E-35  0.0000000E+00  0.0000000E+00  0.0000000E+00  0.0000000E+00  0.0000000E+00  0.0000000E+00  0.0000000E+00  0.0000000E+00
 chandeg          171   17.03200      2.6691427E-05  0.0000000E+00  2.4310946E-04  1.4290189E-04  1.1528930E-04  8.3083847E-05  6.6457251E-05  4.9296439E-05  3.4831333E-05  2.0135196E-05  7.6819624E-06  4.1683361E-06  3.6518632E-06  2.4961737E-06  5.6213798E-07  2.0120776E-09  3.2350922E-10  1.0556037E-12  2.1766858E-14  4.8178407E-17  1.3881275E-19  2.8193516E-23  2.7902022E-27  7.6678591E-33  0.0000000E+00  0.0000000E+00  0.0000000E+00  0.0000000E+00  0.0000000E+00  0.0000000E+00  0.0000000E+00
 chandeg          226  8.4600002E-02  3.4312066E-06  0.0000000E+00  1.3175793E-04  1.3171448E-04  1.3168792E-04  1.3164118E-04  1.3151768E-04  1.2867516E-04  1.2635739E-04  6.9476814E-06  3.6593410E-06  2.1725912E-06  6.3439410E-07  5.6132615E-07  3.3903424E-07  2.1454897E-08  2.8420075E-10  4.2553353E-11  2.2164005E-14  1.9762352E-15  1.2706442E-18  1.1883533E-21  1.2998103E-25  5.7046312E-30  6.3968008E-36  0.0000000E+00  0.0000000E+00  0.0000000E+00  0.0000000E+00  0.0000000E+00  0.0000000E+00
 chandeg          246  5.9400000E-02  4.1529705E-04  0.0000000E+00  1.9361498E-02  1.9359058E-02  1.9356497E-02  1.9353615E-02  1.9347170E-02  1.9337382E-02  1.9325187E-02  1.9241221E-02  4.6542664E-05  1.7586435E-06  1.0548817E-06  4.8143318E-07  2.7271398E-07  2.2494230E-07  1.0623970E-07  2.0939130E-10  3.5867510E-11  2.4313769E-14  1.2818913E-16  9.4855554E-20  6.2498635E-23  1.6848120E-27  9.0766847E-33  0.0000000E+00  0.0000000E+00  0.0000000E+00  0.0000000E+00  0.0000000E+00  0.0000000E+00
 chandeg          247   67.16060      4.1529888E-04  0.0000000E+00  1.9719537E-02  1.9717053E-02  1.9714484E-02  1.9711509E-02  1.9704947E-02  1.9694975E-02  1.9682558E-02  1.9597014E-02  5.1588675E-05  1.6450959E-06  1.0540487E-06  3.7897706E-07  2.2537999E-07  1.2524424E-07  6.1877444E-08  1.4624873E-08  4.7431498E-10  5.9203288E-13  1.3031149E-14  5.6483584E-19  4.4255633E-24  2.5191720E-30  0.0000000E+00  0.0000000E+00  0.0000000E+00  0.0000000E+00  0.0000000E+00  0.0000000E+00  0.0000000E+00
 chandeg          250  0.6779000      3.4375960E-04  0.0000000E+00  2.8751357E-02  2.8748989E-02  2.8747194E-02  2.8739644E-02  2.8732006E-02  2.8722506E-02  2.8698603E-02  2.8608633E-02  2.8288133E-02  2.7241983E-02  1.4654237E-06  7.3869245E-07  3.2687078E-07  1.5232794E-07  7.3156372E-08  3.5958475E-08  6.2038814E-09  4.2761625E-10  6.9540096E-11  1.7271849E-14  4.8605902E-18  5.0397332E-22  1.4157884E-26  2.1283892E-35  0.0000000E+00  0.0000000E+00  0.0000000E+00  0.0000000E+00  0.0000000E+00
 chandeg          251  0.7822000      3.4182190E-04  0.0000000E+00  3.5395738E-02  3.5392825E-02  3.5390612E-02  3.5381321E-02  3.5371915E-02  3.5360221E-02  3.5330795E-02  3.5220031E-02  3.4825467E-02  3.3537794E-02  1.4948778E-06  7.2285536E-07  3.2063829E-07  1.2466042E-07  7.4406607E-08  4.2992713E-08  5.1150965E-11  4.7479022E-12  1.9826601E-17  2.8269241E-23  2.4083339E-32  0.0000000E+00  0.0000000E+00  0.0000000E+00  0.0000000E+00  0.0000000E+00  0.0000000E+00  0.0000000E+00  0.0000000E+00
 chandeg          294  1.9600000E-02  1.5859774E-04  0.0000000E+00  5.6373477E-03  5.6370320E-03  5.6368173E-03  5.6359717E-03  5.6350701E-03  5.6340476E-03  5.6322757E-03  5.6244154E-03  5.6147389E-03  5.6032976E-03  5.5898661E-03  5.5787913E-03  5.5626463E-03  5.5324440E-03  5.4663643E-03  5.3371396E-03  7.1599482E-07  7.7292576E-08  3.2226666E-08  2.2362736E-08  5.8749166E-09  3.4227510E-11  7.0206872E-15  9.3577723E-21  4.3357417E-29  1.9559966E-35  0.0000000E+00  0.0000000E+00  0.0000000E+00
 chandeg          297  9.9999997E-06  1.3887380E-04  0.0000000E+00  2.4763117E-02  2.4761872E-02  2.4760682E-02  2.4757069E-02  2.4753485E-02  2.4747888E-02  2.4740832E-02  2.4706298E-02  2.4666080E-02  2.4614552E-02  2.4555201E-02  2.4511475E-02  2.4446789E-02  2.4349682E-02  2.4099421E-02  2.3813395E-02  2.2737136E-02  2.2227407E-02  2.1701502E-02  1.0514133E-08  1.1556570E-09  1.6143537E-10  3.3409408E-13  1.4776562E-19  1.2252142E-28  3.3924367E-32  1.6482043E-36  0.0000000E+00  0.0000000E+00
 chandeg          148  0.2931000      1.9389869E-07  0.0000000E+00  5.6431284E-03  8.1082135E-06  6.6618081E-06  4.6625551E-06  3.6234972E-06  2.6459848E-06  1.7480037E-06  1.0321120E-06  7.4827028E-07  4.3355624E-07  2.6370788E-07  1.8076267E-07  1.1042081E-07  4.2876177E-08  5.0257469E-09  3.7240752E-10  1.5569640E-12  3.3525837E-15  1.9712605E-18  8.0929603E-24  6.1121457E-29  3.6091473E-37  0.0000000E+00  0.0000000E+00  0.0000000E+00  0.0000000E+00  0.0000000E+00  0.0000000E+00  0.0000000E+00
 chandeg          158  0.8595000      1.1880943E-06  0.0000000E+00  3.5916492E-02  3.3070207E-02  1.2586485E-03  7.8372665E-05  3.7525049E-05  1.1028490E-05  4.3075320E-06  2.7596436E-06  2.5394136E-06  2.1040755E-06  1.9275953E-06  1.7082908E-06  1.5742997E-06  1.4155944E-06  1.1561762E-06  9.2986016E-07  6.6246861E-07  5.8769069E-07  4.5563971E-07  3.1873475E-07  2.4352522E-07  1.6538752E-07  1.3211574E-07  0.0000000E+00  0.0000000E+00  0.0000000E+00  0.0000000E+00  0.0000000E+00  0.0000000E+00
 chandeg          159  9.9999997E-06  8.3574650E-07  0.0000000E+00  3.9275765E-02  3.3059660E-02  4.6427054E-03  7.8424804E-05  3.7459627E-05  1.1000182E-05  4.2943147E-06  2.7502647E-06  2.5300374E-06  2.0947064E-06  1.9214531E-06  1.7021511E-06  1.5681617E-06  1.4094591E-06  1.1500467E-06  9.2636270E-07  6.5897655E-07  5.8420090E-07  4.5215594E-07  3.1526238E-07  2.4207731E-07  1.6394367E-07  1.3067505E-07  1.4619449E-10  4.7290357E-12  2.4667683E-12  1.5095711E-12  1.3477518E-12  0.0000000E+00
 chandeg          298  3.5399999E-02  1.3872067E-04  0.0000000E+00  3.0803701E-02  3.0642459E-02  3.0636299E-02  3.0613141E-02  3.0599708E-02  3.0589622E-02  3.0563015E-02  3.0508606E-02  3.0438252E-02  3.0391354E-02  3.0290846E-02  3.0236254E-02  3.0131839E-02  3.0036828E-02  2.9865917E-02  2.9515399E-02  2.7643275E-02  2.7099397E-02  2.3603307E-02  4.0415503E-07  2.6545170E-08  2.7816416E-10  9.5334560E-11  7.6677398E-16  3.1773104E-21  7.7800505E-25  2.1776719E-27  8.0433831E-30  0.0000000E+00
 chandeg          309  9.9999997E-06  1.6077515E-04  0.0000000E+00  1.9100212E-02  1.9059237E-02  1.9053647E-02  1.9036239E-02  1.9021397E-02  1.9003252E-02  1.8979557E-02  1.8909778E-02  1.8852388E-02  1.8754046E-02  1.8564157E-02  7.8558149E-03  7.8354776E-03  7.8131538E-03  7.7850563E-03  7.7469754E-03  7.6844320E-03  7.6039606E-03  7.5148717E-03  7.3886658E-03  7.2268061E-03  7.1156528E-03  6.9185956E-03  6.6875117E-03  6.3102674E-03  6.0076425E-03  5.7891123E-03  1.6152978E-08  0.0000000E+00
 chandeg          235   6.220100      4.3241227E-05  0.0000000E+00  2.7385762E-02  1.3287834E-02  1.3269799E-02  1.3046067E-02  1.2825693E-02  1.2278168E-02  1.1913843E-02  1.1481824E-02  2.0320283E-03  1.3351998E-03  1.0834071E-03  8.0112607E-04  6.7087123E-04  5.8094662E-04  4.8978662E-04  4.1455193E-04  3.1443988E-04  2.3304403E-04  1.8340307E-04  1.1773028E-04  8.4602987E-05  5.9120284E-05  4.4361219E-05  1.9636143E-05  4.9175242E-06  2.3582008E-06  1.8226870E-06  1.1328729E-06  0.0000000E+00
 chandeg          236  9.9999997E-06  2.0899859E-04  0.0000000E+00  3.3852682E-02  1.9818975E-02  1.9759165E-02  1.9558394E-02  1.9389406E-02  1.8849015E-02  1.8413166E-02  1.8016770E-02  2.6274410E-03  1.5272663E-03  1.1059605E-03  8.0586079E-04  6.7092228E-04  5.8099616E-04  4.8983312E-04  4.1422667E-04  3.1459657E-04  2.3304408E-04  1.8343476E-04  1.1773033E-04  8.4418090E-05  5.8979564E-05  4.4360913E-05  1.9579933E-05  4.8943079E-06  2.3430252E-06  1.8140269E-06  1.1242375E-06  0.0000000E+00
 chandeg          310  9.9999997E-06  1.8295273E-04  0.0000000E+00  2.2523018E-02  2.2486789E-02  2.2463854E-02  2.2433683E-02  2.2377655E-02  2.2324828E-02  2.2248479E-02  2.1970192E-02  2.1742579E-02  2.1657730E-02  2.1569934E-02  2.1494979E-02  2.1414516E-02  2.1345221E-02  2.1291122E-02  3.4243491E-04  3.4109919E-04  3.3940151E-04  3.3720839E-04  3.3188472E-04  3.2602093E-04  3.1665782E-04  3.0757982E-04  2.9575737E-04  2.7460864E-04  2.6312628E-04  2.5112106E-04  3.8367548E-07  0.0000000E+00
 chandeg          311  2.4499999E-02  1.1860096E-04  0.0000000E+00  4.6657924E-02  4.6385050E-02  4.6371605E-02  4.6351433E-02  4.6323396E-02  4.6297319E-02  4.6255104E-02  4.6161737E-02  4.6051018E-02  4.5975056E-02  4.5858543E-02  4.5762543E-02  4.5687731E-02  4.5459740E-02  4.5204941E-02  4.4472847E-02  4.1153394E-02  3.9737623E-02  3.3864103E-02  1.5488210E-02  1.5165179E-02  1.4817478E-02  1.4482368E-02  1.3502927E-02  1.2801700E-02  1.2495588E-02  1.2159428E-02  1.1903249E-02  0.0000000E+00
 chandeg           86   7.038400      2.0173326E-04  0.0000000E+00  4.2855754E-02  2.0795695E-02  2.0748056E-02  2.0435579E-02  2.0134373E-02  1.9395579E-02  1.8850248E-02  1.8305883E-02  3.9098999E-03  2.2869615E-03  1.6431098E-03  1.2276180E-03  1.0035564E-03  8.5654826E-04  7.5196708E-04  6.2340876E-04  5.2082399E-04  3.7015171E-04  3.0541889E-04  1.9484322E-04  1.4793385E-04  1.0171693E-04  7.3329233E-05  2.6001078E-05  1.0746788E-05  5.1912643E-06  3.6962772E-06  2.2974136E-06  0.0000000E+00
 chandeg           87   46.24640      1.9977156E-04  0.0000000E+00  4.2782690E-02  2.0793946E-02  2.0597924E-02  2.0435559E-02  2.0134374E-02  1.9395743E-02  1.8850248E-02  1.8305715E-02  3.9098999E-03  2.2892144E-03  1.6434798E-03  1.2452749E-03  1.0125728E-03  8.5700222E-04  7.5196609E-04  6.3897722E-04  5.2139134E-04  3.7360474E-04  3.0331736E-04  1.9484322E-04  1.4793385E-04  1.0171695E-04  7.3329233E-05  2.6001078E-05  1.0746788E-05  5.1912643E-06  3.6962772E-06  2.2974134E-06  0.0000000E+00
 chandeg          248   60.18110      2.4662836E-04  0.0000000E+00  9.1281995E-02  4.3406565E-02  3.1684283E-02  1.9694958E-02  1.7336082E-02  1.0573678E-02  6.4234682E-03  3.1192400E-03  2.2910442E-03  2.0781173E-03  1.7843234E-03  5.8394927E-04  2.9882404E-04  1.7291382E-04  1.1595537E-04  9.5557371E-05  6.5932829E-05  4.4004904E-05  3.0168410E-05  1.9110663E-05  1.1338232E-05  4.1796120E-06  2.5725381E-06  4.3265831E-07  1.0799299E-08  0.0000000E+00  0.0000000E+00  0.0000000E+00  0.0000000E+00
 chandeg          249   60.19380      2.9880941E-04  0.0000000E+00  9.5049597E-02  4.5750067E-02  3.3436988E-02  2.1763274E-02  1.7276421E-02  1.3801053E-02  8.6385943E-03  6.3880687E-03  6.0406276E-03  4.2448533E-03  2.0865060E-03  7.5504789E-04  2.9885292E-04  1.7291382E-04  1.1939854E-04  9.5558506E-05  6.5932822E-05  4.5618708E-05  3.0168416E-05  1.9110965E-05  1.1338231E-05  4.1796120E-06  2.5725383E-06  4.1853971E-07  2.5435478E-09  1.0896000E-09  4.0669879E-10  3.0218630E-10  0.0000000E+00
 chandeg           76   37.15170      9.9993165E-05  0.0000000E+00  7.7013792E-03  3.9709648E-03  2.4683580E-03  1.5719020E-03  1.0447786E-03  5.9287075E-04  3.8131693E-04  2.3845723E-04  1.9573084E-04  1.7219839E-04  1.5162992E-04  1.3070813E-04  1.2042344E-04  1.0603579E-04  9.0601687E-05  8.2732884E-05  7.4776384E-05  6.1488121E-05  4.7593094E-05  3.2082098E-05  2.6559490E-05  1.9893740E-05  1.1903605E-05  7.8886469E-06  4.4142375E-06  3.1077782E-06  2.7385797E-06  2.4765557E-06  0.0000000E+00
 chandeg          263   2.521300      2.4136774E-04  0.0000000E+00  5.2683666E-02  3.8531814E-02  3.7841789E-02  3.7439272E-02  3.7164260E-02  3.6972255E-02  3.6595810E-02  3.6254127E-02  3.5788875E-02  3.5649482E-02  3.5312999E-02  3.4116596E-02  1.5075337E-03  7.2655617E-04  5.2106119E-04  3.5509060E-04  2.7989887E-04  2.0230793E-04  1.4253898E-04  8.8637928E-05  6.2973755E-05  4.6252255E-05  3.5380635E-05  2.0666164E-05  8.8152019E-06  2.6960436E-06  1.6261429E-06  1.1028490E-06  0.0000000E+00
 chandeg          264  9.9999997E-06  2.3883404E-04  0.0000000E+00  6.8461843E-02  5.4241270E-02  5.3760376E-02  5.3466566E-02  5.3064715E-02  5.2917741E-02  5.2580543E-02  5.2215595E-02  5.1791716E-02  5.1566321E-02  5.0964009E-02  4.9313106E-02  6.2049422E-03  8.3849888E-04  5.2096590E-04  3.6398665E-04  2.8821497E-04  2.0297350E-04  1.4253899E-04  8.8547262E-05  6.6159162E-05  4.6189722E-05  3.5333996E-05  2.0633142E-05  8.7983208E-06  2.6870814E-06  1.6202764E-06  1.0995047E-06  0.0000000E+00
 chandeg          199  0.1394000      2.5456923E-04  0.0000000E+00  7.9523781E-03  4.4532018E-03  3.6626551E-03  3.1709746E-03  2.5818022E-03  2.4546483E-03  2.1832483E-03  1.5471951E-03  1.0418979E-03  6.9220876E-04  4.4556198E-04  3.6268495E-04  2.6927618E-04  1.5683148E-04  9.0732268E-05  4.1983938E-05  2.8783248E-05  1.4777425E-05  9.6959520E-06  5.8657715E-06  3.1367292E-06  2.0428406E-06  1.5873242E-06  1.2105843E-06  9.1038038E-07  8.7441487E-07  8.2614963E-07  7.9050892E-07  0.0000000E+00
 chandeg          200  9.9999997E-06  2.1042553E-04  0.0000000E+00  1.0040794E-02  5.0449427E-03  4.4170693E-03  3.2060237E-03  2.6433039E-03  2.5310679E-03  2.2704990E-03  1.5464511E-03  1.0424197E-03  6.9256540E-04  4.4448362E-04  3.6289424E-04  2.7212000E-04  1.5693269E-04  9.0773836E-05  4.2048156E-05  2.8657292E-05  1.4798726E-05  9.6194726E-06  5.8211758E-06  3.1051509E-06  2.0221648E-06  1.5667084E-06  1.1900515E-06  8.9863437E-07  8.6267511E-07  8.1441902E-07  7.7878582E-07  1.7318943E-12
 chandeg           17   7.007400      2.5276604E-04  0.0000000E+00  5.7635378E-02  3.0956423E-02  2.9958347E-02  2.5762066E-02  2.3638546E-02  2.0270146E-02  1.5996814E-02  9.8226545E-03  7.4377442E-03  5.1965988E-03  3.8860035E-03  2.8807281E-03  2.2203925E-03  1.7701472E-03  1.4002318E-03  1.0768122E-03  8.2559622E-04  5.8381521E-04  4.2045716E-04  2.7220897E-04  1.7832794E-04  9.8835844E-05  3.4579636E-05  1.2863345E-05  5.5261253E-06  3.0991398E-06  2.6005450E-06  2.1972489E-06  0.0000000E+00
 chandeg           63   8.835200      2.3865001E-04  0.0000000E+00  9.5371634E-02  5.6284845E-02  5.3260028E-02  4.8359789E-02  4.2446371E-02  3.7953377E-02  3.0404406E-02  1.7848883E-02  1.3387783E-02  9.2542367E-03  7.0305127E-03  5.1343534E-03  3.9338591E-03  2.6604424E-03  1.8734607E-03  1.4177148E-03  1.1320164E-03  8.8766793E-04  5.6001352E-04  3.6512438E-04  2.8539618E-04  2.2173564E-04  1.4636631E-04  7.8087032E-05  3.2914333E-05  1.9646459E-05  1.2710435E-05  8.0754844E-06  0.0000000E+00
 chandeg           73   10.69170      1.7940061E-04  0.0000000E+00  3.1525858E-02  9.6260840E-03  8.4088612E-03  7.7689230E-03  6.9045867E-03  6.3119289E-03  4.9357153E-03  3.2003184E-03  2.4758175E-03  2.0255169E-03  1.6270169E-03  1.3914867E-03  1.1672014E-03  9.9907827E-04  8.4215152E-04  7.0681085E-04  5.7263789E-04  4.4188951E-04  3.4241259E-04  2.5099309E-04  1.6810760E-04  1.0335061E-04  6.4733489E-05  3.2257281E-05  9.4099278E-06  5.8417263E-06  4.7028147E-06  4.0752366E-06  0.0000000E+00
 chandeg           88   7.020800      2.3724155E-04  0.0000000E+00  5.6958064E-02  2.8189739E-02  2.6368642E-02  2.3160040E-02  2.0265372E-02  1.8084126E-02  1.4512273E-02  9.3484269E-03  7.0927953E-03  5.3281840E-03  3.6457016E-03  2.3667144E-03  1.6604046E-03  1.3433481E-03  9.9765975E-04  7.5013295E-04  5.3391361E-04  3.7006586E-04  2.5554965E-04  1.8603631E-04  1.2710351E-04  7.0025431E-05  3.4706740E-05  1.7102582E-05  7.0870219E-06  3.6149188E-06  2.6662426E-06  2.2838592E-06  0.0000000E+00
 chandeg           90   7.468100      2.3776043E-04  0.0000000E+00  5.6803305E-02  2.8154794E-02  2.6391149E-02  2.3205252E-02  2.0226493E-02  1.8137993E-02  1.4417539E-02  9.3895104E-03  7.1084602E-03  5.3466819E-03  3.6545717E-03  2.3648932E-03  1.6618756E-03  1.3377455E-03  1.0066085E-03  7.5857161E-04  5.3437054E-04  3.7036612E-04  2.5555276E-04  1.9319287E-04  1.2710351E-04  7.1417635E-05  3.4725093E-05  1.7102580E-05  7.0870219E-06  3.6149193E-06  2.6662426E-06  2.2838592E-06  0.0000000E+00
 chandeg           95   256.3586      1.5928136E-04  0.0000000E+00  2.4255414E-02  9.3100704E-03  6.7020282E-03  4.9562883E-03  3.7147175E-03  3.1906241E-03  2.8174215E-03  1.9575735E-03  1.4130194E-03  1.0354659E-03  6.7095266E-04  5.3268432E-04  4.3768273E-04  3.1943587E-04  2.7505052E-04  1.7284929E-04  1.4207744E-04  1.1332302E-04  7.9633690E-05  6.1406077E-05  5.0718878E-05  4.2508207E-05  3.7975762E-05  3.0103496E-05  2.4634832E-05  2.2594833E-05  2.0784177E-05  1.8860430E-05  0.0000000E+00
 chandeg          139   4.205300      2.0691620E-04  0.0000000E+00  4.9827095E-02  1.3826035E-02  1.0852728E-02  8.6905370E-03  7.9692984E-03  7.3867952E-03  5.5860607E-03  3.3402068E-03  2.5761556E-03  1.9452556E-03  1.5786510E-03  1.2995562E-03  9.8920532E-04  7.4389839E-04  5.3318869E-04  3.7031170E-04  3.0212113E-04  2.1934429E-04  1.7096443E-04  1.3994468E-04  1.2195630E-04  9.1486960E-05  6.4074411E-05  4.2748878E-05  2.7228458E-05  2.4649089E-05  2.1530452E-05  2.0082454E-05  0.0000000E+00
 chandeg          217  9.9999997E-06  1.3044124E-04  0.0000000E+00  5.7960097E-02  1.6429923E-02  1.3969670E-02  1.1313928E-02  1.0050276E-02  9.5646437E-03  8.9322785E-03  6.7144930E-03  3.4551537E-03  2.3105703E-03  1.8066274E-03  1.4305628E-03  1.1473264E-03  8.3057518E-04  5.3346512E-04  3.7047005E-04  3.0295405E-04  2.1934474E-04  1.7106927E-04  1.3999945E-04  1.2200874E-04  9.1486960E-05  6.4114953E-05  4.2749089E-05  2.7228461E-05  2.4649271E-05  2.1530452E-05  2.0109001E-05  0.0000000E+00
 chandeg          243   22.61150      2.4146251E-04  0.0000000E+00  9.5686100E-02  5.6265581E-02  5.3253423E-02  4.8347332E-02  4.2276561E-02  3.7899900E-02  3.0434137E-02  1.7871860E-02  1.3602489E-02  9.2541352E-03  7.0819310E-03  5.2813776E-03  3.9328113E-03  2.6607374E-03  1.8785974E-03  1.4206487E-03  1.1908124E-03  9.6504774E-04  5.5512378E-04  3.6089087E-04  2.9146337E-04  2.2173589E-04  1.4636631E-04  7.8184195E-05  3.2914337E-05  1.9646461E-05  1.2710435E-05  8.0754853E-06  0.0000000E+00
 chandeg          276   35.97460      2.1624027E-04  0.0000000E+00  3.1575136E-02  2.0888371E-02  2.0443164E-02  1.9406170E-02  1.7281691E-02  1.5227753E-02  1.2064327E-02  9.3631539E-03  7.6533798E-03  6.4390516E-03  5.5454043E-03  4.8185224E-03  4.4643166E-03  4.1599702E-03  4.0105437E-03  2.1018956E-03  9.3971333E-04  3.3172354E-04  1.6489596E-04  1.2810813E-04  6.8507608E-05  2.9424808E-05  1.1430081E-05  4.5253455E-06  2.2311285E-06  1.4428671E-06  1.2252650E-06  1.0832665E-06  0.0000000E+00
 chandeg           18   13.14590      2.1367065E-04  0.0000000E+00  0.1344179      4.9693156E-02  4.2293224E-02  3.6498971E-02  3.3566300E-02  3.0084174E-02  2.3958534E-02  1.4233886E-02  1.1353509E-02  8.3237877E-03  6.2441332E-03  4.9877539E-03  4.3021692E-03  3.6144119E-03  3.0633120E-03  2.4805591E-03  1.9880768E-03  1.6187327E-03  1.2856834E-03  9.7835809E-04  7.3483848E-04  4.9499620E-04  3.1070685E-04  1.6903583E-04  5.8566118E-05  3.7479018E-05  3.3895569E-05  2.9470324E-05  7.1035655E-10
 chandeg           94   258.3724      1.5644651E-04  0.0000000E+00  2.1472642E-02  7.2351079E-03  5.9778327E-03  4.6474193E-03  3.6524229E-03  3.2673136E-03  2.8750044E-03  1.9833674E-03  1.4185734E-03  9.9492702E-04  7.3173665E-04  5.3782825E-04  4.3531365E-04  3.5216450E-04  2.7462558E-04  2.0412140E-04  1.7232870E-04  1.2457110E-04  9.0758527E-05  7.6505268E-05  6.5192384E-05  5.6603440E-05  4.8397818E-05  3.8496652E-05  2.8802642E-05  2.5586296E-05  2.2898634E-05  2.0841646E-05  0.0000000E+00
 chandeg           96   43.15330      1.3827720E-04  0.0000000E+00  0.4798917      0.2171355      0.1521515      9.5710017E-02  6.4124532E-02  3.6145061E-02  2.6937721E-02  1.3400272E-02  7.7542891E-03  5.6434274E-03  4.3472713E-03  3.3477000E-03  2.5605485E-03  2.1216548E-03  1.6956229E-03  1.3861239E-03  1.0734717E-03  8.7945932E-04  7.3069247E-04  5.4062443E-04  4.4334625E-04  3.8133000E-04  3.0333383E-04  2.4310676E-04  1.7104197E-04  1.5283906E-04  1.2990039E-04  1.1421291E-04  0.0000000E+00
 chandeg          193   2.870500      1.1081405E-04  0.0000000E+00  2.5341604E-02  6.3363709E-03  4.4655399E-03  3.7756008E-03  2.6054853E-03  2.5422913E-03  2.4367506E-03  1.5068031E-03  1.1004355E-03  9.0777414E-04  7.2731246E-04  5.1554770E-04  4.1220241E-04  3.2224276E-04  2.3568593E-04  1.5382122E-04  9.3992385E-05  6.0620467E-05  4.6275134E-05  3.2463056E-05  2.3872381E-05  1.6381469E-05  1.0878308E-05  5.8977721E-06  2.6692537E-06  2.4842534E-06  2.2670845E-06  2.1440887E-06  0.0000000E+00
 chandeg          194  0.1047400      9.8991972E-05  0.0000000E+00  2.7248176E-02  7.2989506E-03  4.4651814E-03  3.7734515E-03  2.6054860E-03  2.5422913E-03  2.4367508E-03  1.5076009E-03  1.1009257E-03  9.0800243E-04  7.2775490E-04  5.1460852E-04  4.1097112E-04  3.2243715E-04  2.3586916E-04  1.5399778E-04  9.3993345E-05  6.0620478E-05  4.6275141E-05  3.2620283E-05  2.3872381E-05  1.6381469E-05  1.0878308E-05  5.8977712E-06  2.6692539E-06  2.4842534E-06  2.2670845E-06  2.1440885E-06  0.0000000E+00
 chandeg          271   93.25188      1.7520963E-04  0.0000000E+00  0.9322990      0.4298431      0.3102063      0.1855461      0.1288290      7.5258844E-02  5.4048099E-02  2.7573287E-02  1.9816887E-02  1.6794341E-02  1.5012744E-02  1.4114921E-02  1.0594560E-02  8.7185111E-03  8.1755416E-03  6.7953030E-03  4.6195770E-03  3.4192742E-03  2.4698947E-03  1.6950634E-03  1.1776460E-03  8.5012050E-04  6.6411257E-04  5.1171641E-04  3.7674457E-04  3.2102296E-04  2.7242707E-04  2.5303467E-04  0.0000000E+00
 chandeg          114   5.856500      8.5571075E-05  0.0000000E+00  6.7748427E-02  1.3273452E-02  9.4173299E-03  7.0083351E-03  4.2355489E-03  3.1017712E-03  2.5846492E-03  1.7062979E-03  1.2846243E-03  1.0510570E-03  7.9039927E-04  5.8034499E-04  4.2245048E-04  3.5632530E-04  2.6852026E-04  1.8308168E-04  1.0928789E-04  6.7743109E-05  5.1066538E-05  3.7439586E-05  2.7935921E-05  2.0180914E-05  1.5267837E-05  7.9204483E-06  3.3017654E-06  2.7270178E-06  2.6543910E-06  2.4533852E-06  0.0000000E+00
 chandeg          115   6.290900      8.5389824E-05  0.0000000E+00  6.7194857E-02  1.3021821E-02  9.2702210E-03  7.0265522E-03  4.2254580E-03  3.1237327E-03  2.5934551E-03  1.6649754E-03  1.2771192E-03  1.0595070E-03  7.8385969E-04  5.8176281E-04  4.2300869E-04  3.5446251E-04  2.6914128E-04  1.7887069E-04  1.1628480E-04  6.7829780E-05  5.0236606E-05  3.9710165E-05  3.0077061E-05  2.0646687E-05  1.5267835E-05  7.9204738E-06  3.4411644E-06  2.7270180E-06  2.6543912E-06  2.4533852E-06  0.0000000E+00
 chandeg          118   15.72121      8.5452564E-05  0.0000000E+00  6.7146808E-02  1.2997917E-02  9.2559727E-03  7.0277583E-03  4.2242776E-03  3.1192023E-03  2.5946035E-03  1.6638556E-03  1.2760146E-03  1.0606247E-03  7.8496244E-04  5.8286550E-04  4.2301734E-04  3.5339204E-04  2.6915112E-04  1.7780402E-04  1.1628481E-04  6.7829773E-05  5.0255396E-05  3.9732571E-05  3.0077064E-05  2.0646687E-05  1.5267835E-05  7.9204738E-06  3.4411642E-06  2.7270180E-06  2.6543912E-06  2.4533852E-06  0.0000000E+00
 chandeg          144   4.682700      6.1141458E-05  0.0000000E+00  5.9049847E-03  3.0880261E-03  1.8651045E-03  1.2529662E-03  8.2397746E-04  4.8211834E-04  2.8370583E-04  1.5740158E-04  1.3507309E-04  1.2490558E-04  1.2028262E-04  1.1414287E-04  1.0494805E-04  9.4984905E-05  9.1245238E-05  8.2787890E-05  7.7974611E-05  5.9067555E-05  4.8427515E-05  4.4158860E-05  3.8923059E-05  2.8996970E-05  2.1589765E-05  1.5554719E-05  1.1177191E-05  9.6618442E-06  8.4070170E-06  7.7056611E-06  0.0000000E+00
 chandeg           65   2.866100      2.3360520E-04  0.0000000E+00  2.9768258E-02  1.4870611E-02  1.4544768E-02  1.3228152E-02  1.1899863E-02  1.0143588E-02  7.7449083E-03  5.1571322E-03  3.8071566E-03  2.8400423E-03  2.2988212E-03  1.5717543E-03  1.1644644E-03  7.6695828E-04  5.7164516E-04  4.0143021E-04  2.8698222E-04  2.0683739E-04  1.4229518E-04  1.0719826E-04  6.0729224E-05  4.3743657E-05  2.2187816E-05  1.3396883E-05  7.7862051E-06  6.1297769E-06  5.2433043E-06  4.9476052E-06  0.0000000E+00
 chandeg          172  9.9999997E-06  1.0733699E-04  0.0000000E+00  1.0922045E-02  4.5275846E-03  3.4313728E-03  2.2433216E-03  1.0887490E-03  8.2087569E-04  6.2694261E-04  3.3946257E-04  2.6031831E-04  2.1007072E-04  1.6484063E-04  1.3505152E-04  1.1105197E-04  8.9812376E-05  7.1236245E-05  5.7091354E-05  4.2534011E-05  3.3560595E-05  2.4006391E-05  1.9303652E-05  1.3629230E-05  8.2945953E-06  5.2681758E-06  2.9359765E-06  5.3530988E-07  1.3835906E-07  0.0000000E+00  0.0000000E+00  0.0000000E+00
 chandeg          293  9.9999997E-06  9.9923964E-05  0.0000000E+00  4.6129994E-02  1.1271873E-02  1.1003013E-02  2.7225504E-04  2.7221418E-04  2.7214587E-04  2.7206069E-04  2.7165763E-04  2.7118466E-04  2.7066591E-04  2.6999065E-04  2.6946366E-04  2.6866863E-04  2.6720998E-04  2.6404276E-04  2.5848998E-04  3.2288540E-08  5.0832747E-09  1.5771694E-10  1.3071963E-11  2.3965639E-13  4.8512440E-15  2.9761810E-17  9.2115722E-21  3.2101533E-26  3.9394833E-30  2.5623070E-32  5.6549216E-35  0.0000000E+00
 chandeg           61   1.600400      1.0322279E-04  0.0000000E+00  2.9246304E-02  1.0780235E-02  8.5150469E-03  4.4087949E-03  1.9057975E-03  1.0920683E-03  8.3253731E-04  5.7774130E-04  4.3655559E-04  3.3547191E-04  2.6692922E-04  1.9248627E-04  1.5291962E-04  1.2958069E-04  1.1350432E-04  9.1197981E-05  5.8974154E-05  4.9456346E-05  3.9626797E-05  3.1343934E-05  2.2346614E-05  1.3449680E-05  9.5594651E-06  5.1352818E-06  2.8662321E-06  2.3784096E-06  2.2626036E-06  2.1736901E-06  0.0000000E+00
 chandeg           97   2.883980      2.2208264E-04  0.0000000E+00  3.7168227E-02  1.1943907E-02  1.1532083E-02  1.0161522E-02  9.0305982E-03  7.7385926E-03  6.5328088E-03  4.2056749E-03  3.1378807E-03  2.3210829E-03  1.6509308E-03  1.1738061E-03  9.2378195E-04  6.9626002E-04  5.7812163E-04  4.6091733E-04  3.2195149E-04  2.5782417E-04  1.7499542E-04  1.0113506E-04  5.2302308E-05  2.7031914E-05  1.2121764E-05  5.1236980E-06  2.2004576E-06  1.5131017E-06  1.2151721E-06  9.0997088E-07  0.0000000E+00
 chandeg          142   2.621800      2.3395925E-04  0.0000000E+00  3.6066547E-02  1.7114596E-02  1.5844945E-02  1.4892811E-02  1.2909395E-02  1.1135790E-02  9.0497304E-03  6.0325228E-03  4.2104917E-03  3.1731164E-03  2.3464740E-03  1.6660568E-03  1.2531029E-03  8.8236254E-04  5.9903390E-04  4.7131930E-04  3.8148722E-04  2.8296970E-04  2.0176386E-04  1.0981585E-04  6.2999810E-05  3.8541217E-05  1.6407279E-05  7.5454391E-06  2.7606629E-06  1.8688909E-06  1.4381208E-06  1.2454142E-06  0.0000000E+00
 chandeg          143   11.05650      2.1838136E-04  0.0000000E+00  7.8684576E-02  3.0159932E-02  2.9115491E-02  2.5963889E-02  2.2279948E-02  2.0464569E-02  1.6688548E-02  1.0998706E-02  8.1228660E-03  5.9655495E-03  4.4208188E-03  3.0722830E-03  2.4899615E-03  1.9776518E-03  1.6075452E-03  1.3374733E-03  1.0669549E-03  7.8284397E-04  6.5313728E-04  4.6840627E-04  3.2216249E-04  1.8350220E-04  1.1204561E-04  4.4835859E-05  1.8540823E-05  1.3659361E-05  1.1983137E-05  9.7144848E-06  0.0000000E+00
 chandeg          183   84.34550      7.2597017E-05  0.0000000E+00  1.0896579E-02  2.1193796E-03  1.4523248E-03  1.0176429E-03  5.8844191E-04  4.1443727E-04  2.6146395E-04  1.6146679E-04  1.3862905E-04  1.2190289E-04  1.1118421E-04  9.6304604E-05  8.4374049E-05  7.3305840E-05  6.4924418E-05  5.9839276E-05  5.0273095E-05  3.4039058E-05  2.7407681E-05  2.4293695E-05  1.5163962E-05  1.0991879E-05  4.1682661E-06  2.4083645E-06  2.0329051E-06  1.9396882E-06  1.8501590E-06  1.7985620E-06  0.0000000E+00
 chandeg          261  9.9999997E-06  2.6042413E-04  0.0000000E+00  3.6887754E-02  1.6631179E-02  1.3297098E-02  1.0045966E-02  8.6935712E-03  8.4616262E-03  8.2142539E-03  8.0130566E-03  7.8611514E-03  7.7847023E-03  7.6324991E-03  5.2082440E-04  2.7655068E-04  1.7294570E-04  1.2584410E-04  9.5610310E-05  5.9013597E-05  4.9493141E-05  3.9660634E-05  3.1406198E-05  2.2401084E-05  1.3472641E-05  9.5794458E-06  5.1359734E-06  2.8319650E-06  2.3784096E-06  2.2626036E-06  2.1742878E-06  0.0000000E+00
 chandeg          285  9.9999997E-06  1.9031501E-04  0.0000000E+00  7.8629769E-02  4.5400552E-02  4.2619575E-02  4.1088369E-02  3.7654016E-02  3.3270158E-02  3.0645913E-02  2.4831276E-02  2.2083290E-02  1.9889247E-02  1.8459307E-02  1.7314661E-02  1.6748920E-02  1.6354932E-02  1.6037021E-02  1.2903112E-02  3.2099437E-03  1.2212725E-03  7.6260197E-04  5.6111318E-04  3.5946004E-04  2.4519436E-04  1.1208032E-04  4.4835964E-05  1.8425821E-05  1.3577898E-05  1.1901742E-05  9.6477579E-06  0.0000000E+00
 chandeg          304  9.9999997E-06  9.2542119E-05  0.0000000E+00  4.3327264E-02  1.2275985E-02  1.1839037E-02  1.1725911E-02  1.1696532E-02  1.9062726E-03  1.9055906E-03  1.9034479E-03  1.9006745E-03  1.8973183E-03  1.8926894E-03  1.8886973E-03  1.8848745E-03  1.8773588E-03  1.8665603E-03  1.8520945E-03  1.8376313E-03  1.8189835E-03  1.7936466E-03  1.7479236E-03  1.7039466E-03  1.6676723E-03  1.5038043E-03  4.9511897E-09  4.0019661E-14  2.9803092E-18  1.2386757E-22  3.5372397E-25  0.0000000E+00
 chandeg           99   56.78170      1.9653588E-04  0.0000000E+00  3.6612317E-02  1.5452387E-02  1.4965980E-02  1.4217899E-02  1.2080477E-02  1.0869595E-02  9.1245333E-03  5.4743025E-03  4.5672772E-03  3.5316821E-03  2.6483305E-03  1.9750539E-03  1.3396931E-03  9.3529886E-04  5.7975308E-04  3.7335418E-04  2.5080593E-04  1.8948445E-04  1.3729485E-04  7.8586905E-05  5.6387424E-05  3.3852739E-05  2.0856367E-05  1.1362495E-05  6.7467117E-06  5.1141601E-06  4.7514040E-06  3.7225482E-06  0.0000000E+00
 chandeg          216   20.58980      1.0960005E-04  0.0000000E+00  9.7572081E-02  3.1696368E-02  2.5164885E-02  1.6087979E-02  1.3525146E-02  1.2608984E-02  1.1900202E-02  7.7599096E-03  3.9571202E-03  2.7297803E-03  2.0427601E-03  1.6370282E-03  1.3349599E-03  1.0034490E-03  7.2515773E-04  4.6607511E-04  3.6751013E-04  3.2471097E-04  2.7177372E-04  2.0078648E-04  1.7457701E-04  1.3805060E-04  9.7291566E-05  6.2857587E-05  4.1153926E-05  3.2921238E-05  2.8603416E-05  2.6484844E-05  0.0000000E+00
 chandeg          260  9.9999997E-06  2.7421780E-04  0.0000000E+00  4.3409050E-02  2.1754291E-02  1.8287487E-02  1.6536513E-02  1.5258255E-02  1.5043918E-02  1.4746290E-02  1.4512018E-02  1.4398165E-02  1.4287353E-02  1.3905206E-02  5.2112719E-04  2.7679410E-04  1.7294647E-04  1.2796665E-04  9.5741219E-05  5.9199239E-05  4.9493148E-05  3.9660634E-05  3.1459131E-05  2.2401093E-05  1.3472640E-05  9.6139311E-06  5.0284220E-06  2.7747415E-06  2.3214054E-06  2.2056693E-06  2.1174117E-06  0.0000000E+00
 chandeg          305   7.266300      8.0947873E-05  0.0000000E+00  4.9243271E-02  1.6475443E-02  1.6392630E-02  1.6277235E-02  1.6071996E-02  1.5892640E-02  1.5855717E-02  1.5757067E-02  1.5589201E-02  1.4891304E-02  7.2934539E-03  7.2802608E-03  7.2626784E-03  7.2397720E-03  7.2232564E-03  7.1859160E-03  7.1436535E-03  7.0806388E-03  6.9941883E-03  6.9128927E-03  6.7561981E-03  6.5646968E-03  6.3580237E-03  5.6328312E-03  4.0782773E-08  4.7704648E-12  4.7268813E-15  6.1078699E-17  0.0000000E+00
 chandeg           75   19.33380      1.4688517E-04  0.0000000E+00  3.1543769E-02  1.6361795E-02  1.0700573E-02  7.2648767E-03  4.6498002E-03  3.4743017E-03  2.7469033E-03  1.7998107E-03  1.3304347E-03  1.1373424E-03  9.3610579E-04  7.8315742E-04  6.6256465E-04  5.3463381E-04  4.3081588E-04  3.5382758E-04  2.7639227E-04  2.1464845E-04  1.6972018E-04  1.2625143E-04  7.9821504E-05  5.3842818E-05  2.9838069E-05  1.2512975E-05  4.6771434E-06  3.2290900E-06  1.7384871E-06  1.1377829E-06  0.0000000E+00
 chandeg          111  0.9367000      1.3041023E-04  0.0000000E+00  6.1654607E-03  2.6922938E-03  1.6758018E-03  1.0479819E-03  7.9416286E-04  5.8219238E-04  4.5884348E-04  3.6275125E-04  2.9689551E-04  2.4451030E-04  2.0249923E-04  1.7400715E-04  1.4973107E-04  1.3283223E-04  1.1771463E-04  9.6236778E-05  7.4152944E-05  5.9873979E-05  4.6096466E-05  3.4450168E-05  2.7674596E-05  2.1550350E-05  1.5708854E-05  7.1039894E-06  1.6754964E-06  3.9645599E-07  1.4903870E-07  0.0000000E+00  0.0000000E+00
 chandeg          130   4.514700      2.1339292E-04  0.0000000E+00  4.5114394E-02  1.3215005E-02  1.0910613E-02  8.6091356E-03  7.8889523E-03  6.8996134E-03  5.2151806E-03  3.2316088E-03  2.6750071E-03  2.1059669E-03  1.5876774E-03  1.2819489E-03  1.0149928E-03  8.0167426E-04  6.9750583E-04  6.2157924E-04  4.9302430E-04  4.0174523E-04  2.9555772E-04  2.1536660E-04  1.4178567E-04  9.2683258E-05  5.5082353E-05  2.1653283E-05  8.8310599E-06  6.1688115E-06  5.2104297E-06  4.2126326E-06  0.0000000E+00
 chandeg          138   24.04490      1.2165186E-04  0.0000000E+00  5.5243514E-02  1.8439407E-02  1.3633964E-02  7.9324394E-03  4.9976823E-03  2.7652455E-03  2.2038550E-03  1.5805078E-03  1.2821802E-03  1.0357131E-03  8.5636455E-04  6.7086937E-04  5.3554826E-04  4.4741837E-04  3.9618523E-04  3.2902410E-04  2.5831588E-04  1.5768754E-04  1.1537843E-04  8.7861510E-05  6.2911546E-05  3.9727907E-05  2.5772571E-05  1.3327201E-05  5.2305850E-06  3.3048902E-06  2.8407944E-06  2.6244782E-06  0.0000000E+00
 chandeg          244   24.82750      3.5456780E-04  0.0000000E+00  8.1193738E-02  5.0311159E-02  4.7943313E-02  4.6793200E-02  4.6408489E-02  4.5614939E-02  4.5223970E-02  4.5099325E-02  3.5326760E-02  3.3704575E-02  6.1205099E-04  2.1424731E-04  1.7566782E-04  1.5297785E-04  1.4127257E-04  1.2294159E-04  1.0461512E-04  9.1005182E-05  7.1054252E-05  5.4789769E-05  3.9294893E-05  3.0374580E-05  1.2499128E-05  8.0699110E-06  4.9624500E-06  4.2915208E-06  3.8792982E-06  3.4643947E-06  0.0000000E+00
 chandeg          306  9.9999997E-06  8.3051236E-05  0.0000000E+00  4.9152616E-02  3.3581175E-02  3.3513576E-02  3.3325493E-02  3.3187427E-02  3.3081211E-02  3.2927144E-02  3.2510005E-02  3.1924199E-02  3.1651322E-02  3.1492088E-02  3.1141816E-02  3.0369481E-02  2.7866954E-02  2.1965586E-02  2.1850059E-02  2.1757204E-02  2.1623552E-02  2.1457670E-02  2.1282896E-02  2.1022378E-02  2.0455902E-02  1.9600708E-02  1.7997537E-02  1.3404151E-02  9.9841415E-08  2.7589040E-08  8.8641965E-09  0.0000000E+00
 chandeg           62   26.63406      2.3864678E-04  0.0000000E+00  0.1323774      5.0735276E-02  4.1222025E-02  2.6825024E-02  2.1166051E-02  1.8782694E-02  1.7834190E-02  1.6495489E-02  1.5741421E-02  1.5297743E-02  1.4770745E-02  2.6594235E-03  1.8555698E-03  1.3058892E-03  9.0498402E-04  6.2350149E-04  4.9881201E-04  3.2426356E-04  2.4812264E-04  1.7140541E-04  1.3515931E-04  9.5527263E-05  7.0239003E-05  3.8771181E-05  2.2440603E-05  1.4689981E-05  1.1525579E-05  9.9985655E-06  0.0000000E+00
 chandeg           72   8.995600      1.2875807E-04  0.0000000E+00  0.1020647      3.2598395E-02  1.8964624E-02  1.3214004E-02  8.2815178E-03  6.0544587E-03  4.6848976E-03  3.2479900E-03  2.5558863E-03  2.0569493E-03  1.7141429E-03  1.3891028E-03  1.0958272E-03  9.1486319E-04  7.8602659E-04  6.7088229E-04  4.6996024E-04  3.5575734E-04  2.7416821E-04  1.8126470E-04  1.2750232E-04  8.6421926E-05  4.3522658E-05  1.1671873E-05  4.6750592E-06  6.5490701E-07  3.1236243E-07  5.9383666E-08  0.0000000E+00
 chandeg          205  9.9999997E-06  2.0689357E-04  0.0000000E+00  0.1471561      5.0725594E-02  4.3684460E-02  2.7414573E-02  2.1972001E-02  1.9342067E-02  1.8028349E-02  1.6495489E-02  1.5741555E-02  1.5297743E-02  1.4771008E-02  2.6597094E-03  1.8557552E-03  1.3061098E-03  9.0512831E-04  6.2350155E-04  4.9888768E-04  3.2436455E-04  2.4818137E-04  1.7143044E-04  1.3515931E-04  9.5547402E-05  7.0239003E-05  3.8686234E-05  2.2382465E-05  1.4653717E-05  1.1489338E-05  9.9714107E-06  0.0000000E+00
 chandeg          307   16.02080      9.9856545E-05  0.0000000E+00  4.4266317E-02  3.1474218E-02  3.1378057E-02  3.1164596E-02  3.0889243E-02  3.0706679E-02  3.0397803E-02  2.9910564E-02  2.9592274E-02  2.9314699E-02  2.9103681E-02  2.8921401E-02  2.8613290E-02  2.8434835E-02  2.8201297E-02  2.7961904E-02  2.7721081E-02  2.7497932E-02  2.7090101E-02  2.6784372E-02  2.6297025E-02  2.5707487E-02  2.4501223E-02  2.0768983E-02  1.6112639E-02  3.6371094E-03  7.1300259E-05  1.0570282E-07  0.0000000E+00
 chandeg           23   6.877400      1.1592191E-05  0.0000000E+00  0.2541349      0.1691592      0.1257958      9.3355753E-02  7.1333565E-02  5.7419412E-02  4.0216368E-02  1.9642817E-02  8.2402006E-03  3.3128045E-03  1.6767508E-03  1.1015791E-03  8.3771942E-04  6.9477467E-04  6.3592353E-04  5.9285166E-04  5.6309020E-04  5.2695558E-04  4.7365393E-04  4.3378648E-04  4.0068573E-04  3.5406378E-04  3.0847566E-04  2.5067187E-04  1.8696937E-04  1.4534337E-04  1.2586596E-04  1.0590684E-04  0.0000000E+00
 chandeg           25   37.93840      2.3441431E-04  0.0000000E+00  9.7509809E-02  5.8786422E-02  5.6862086E-02  5.5811226E-02  5.5251531E-02  5.4881033E-02  5.4131798E-02  5.3276282E-02  5.2436262E-02  5.2132942E-02  5.1698286E-02  4.9628597E-02  1.4932672E-02  2.0769304E-03  1.2527017E-03  9.4034715E-04  7.1634457E-04  6.0178811E-04  3.7993112E-04  2.5774582E-04  1.7818128E-04  1.2955896E-04  8.0094302E-05  5.2166073E-05  2.2637996E-05  1.5592948E-05  1.2009290E-05  1.0350256E-05  0.0000000E+00
 chandeg          100   10.52170      2.4769013E-05  0.0000000E+00  0.2884599      0.1998556      0.1488779      0.1108197      8.7745056E-02  6.6374101E-02  4.5233779E-02  2.1945558E-02  8.3675096E-03  4.8324266E-03  3.0938240E-03  2.3552349E-03  1.9865118E-03  1.7129981E-03  1.5032152E-03  1.3286356E-03  1.1340870E-03  1.0226752E-03  8.9471164E-04  7.4521604E-04  6.3797773E-04  5.0714315E-04  4.0784391E-04  2.7046469E-04  1.6188380E-04  1.2412583E-04  1.0666798E-04  9.4332499E-05  5.0492036E-16
 chandeg          101   11.98860      2.7745185E-05  0.0000000E+00  0.2859362      0.1983591      0.1464699      0.1095614      8.6010247E-02  6.6195883E-02  4.4184349E-02  2.1931542E-02  9.1546718E-03  5.4430333E-03  3.5542191E-03  2.4523307E-03  2.0477825E-03  1.7573482E-03  1.5485474E-03  1.3302354E-03  1.1843006E-03  1.0255561E-03  9.2171255E-04  7.4705336E-04  6.4155384E-04  5.0863210E-04  4.0813608E-04  2.7078969E-04  1.6343850E-04  1.2412660E-04  1.0666821E-04  9.4332499E-05  0.0000000E+00
 chandeg          104   18.12861      1.0749420E-04  0.0000000E+00  6.2662341E-02  4.4176221E-02  4.3454375E-02  4.2812258E-02  4.2204749E-02  4.0584564E-02  3.8598310E-02  3.5653606E-02  3.3451859E-02  3.2276276E-02  3.1519257E-02  3.0715013E-02  3.0477589E-02  3.0220741E-02  2.9763844E-02  2.9121416E-02  2.8630357E-02  2.8215921E-02  2.7858146E-02  2.7347205E-02  2.6756134E-02  2.6271278E-02  2.5012363E-02  2.4476208E-02  7.9333028E-03  7.4678822E-03  1.0675724E-03  7.9975682E-05  0.0000000E+00
 chandeg          195   23.96500      1.7366010E-04  0.0000000E+00  0.1747143      4.1947246E-02  3.5620391E-02  2.7554357E-02  2.4142964E-02  2.1596583E-02  1.5338111E-02  9.3196929E-03  7.2114174E-03  5.6266556E-03  4.2497483E-03  3.2047855E-03  2.1234266E-03  1.5704386E-03  1.2495395E-03  9.6596812E-04  7.8239129E-04  5.8378780E-04  4.4686141E-04  4.0233563E-04  2.6124044E-04  1.7970978E-04  1.1977764E-04  6.3280095E-05  4.2502477E-05  3.7732647E-05  3.4799599E-05  2.9265117E-05  0.0000000E+00
 chandeg          196   29.72160      1.6671290E-04  0.0000000E+00  0.1784435      4.1920152E-02  3.5570394E-02  2.8571008E-02  2.4147831E-02  2.1591874E-02  1.6223792E-02  9.3241418E-03  7.2060707E-03  5.6277299E-03  4.2518782E-03  3.2058365E-03  2.1244648E-03  1.5714525E-03  1.2505630E-03  9.6698577E-04  7.8284240E-04  5.8378791E-04  4.4686146E-04  4.0117468E-04  2.6124986E-04  1.8069464E-04  1.1977765E-04  6.2761959E-05  4.2675951E-05  3.7732643E-05  3.4799599E-05  2.9286488E-05  0.0000000E+00
 chandeg          197   44.94690      1.7176374E-04  0.0000000E+00  0.3802229      8.9354940E-02  6.4258777E-02  5.1722221E-02  4.6068747E-02  4.1291554E-02  2.8777195E-02  1.7622471E-02  1.3364748E-02  1.1263761E-02  8.6041167E-03  6.8574417E-03  5.6094048E-03  4.0124045E-03  3.1585838E-03  2.7593302E-03  2.2612954E-03  1.6837619E-03  1.2528780E-03  9.8428270E-04  7.3493324E-04  4.7615365E-04  2.6885353E-04  1.4858434E-04  1.0402443E-04  8.3584418E-05  7.2242168E-05  6.8150475E-05  0.0000000E+00
 chandeg          198   44.94690      1.6848811E-04  0.0000000E+00  0.3802229      9.2668675E-02  6.7584336E-02  5.1722214E-02  4.7713686E-02  4.1291557E-02  2.8777195E-02  1.7622471E-02  1.3364748E-02  1.1263761E-02  8.6041167E-03  6.8574413E-03  5.6094052E-03  4.0124045E-03  3.1421778E-03  2.7555982E-03  2.2378592E-03  1.6790974E-03  1.2584381E-03  9.9265215E-04  7.3760923E-04  4.7748393E-04  2.7016064E-04  1.4869633E-04  1.0275515E-04  8.3879582E-05  7.2384413E-05  6.8150490E-05  0.0000000E+00
 chandeg          203   7.031100      1.1292699E-05  0.0000000E+00  0.2540768      0.1690809      0.1257751      9.3305446E-02  7.2455175E-02  5.7389390E-02  4.0191013E-02  1.9628253E-02  8.3728824E-03  3.6808145E-03  1.7752483E-03  1.1695006E-03  8.5518666E-04  6.9670688E-04  6.3809077E-04  5.9285364E-04  5.6309492E-04  5.2695780E-04  4.7365396E-04  4.3421632E-04  4.0068568E-04  3.5406376E-04  3.0847813E-04  2.5067190E-04  1.8696937E-04  1.4534337E-04  1.2586596E-04  1.0655649E-04  0.0000000E+00
 chandeg          204  9.9999997E-06  1.8958177E-04  0.0000000E+00  0.1471561      5.5443507E-02  4.6331566E-02  2.7414570E-02  2.1972001E-02  1.9342067E-02  1.8028349E-02  1.6495490E-02  1.5741555E-02  1.5297744E-02  1.4771010E-02  2.6597094E-03  1.8557550E-03  1.3061098E-03  9.0512220E-04  6.2350155E-04  4.9888768E-04  3.2436455E-04  2.4818137E-04  1.7143044E-04  1.3515931E-04  9.6012860E-05  7.0681635E-05  3.9034770E-05  2.1288779E-05  1.5053556E-05  1.1600740E-05  9.9892795E-06  0.0000000E+00
 chandeg            4   16.27890      1.7856127E-04  0.0000000E+00  0.2332229      3.7907973E-02  3.1396087E-02  2.8199576E-02  2.5822069E-02  2.3820577E-02  1.9972945E-02  1.2880919E-02  9.9988859E-03  7.7917143E-03  6.1076758E-03  5.1614312E-03  3.9922940E-03  3.0333868E-03  2.3241055E-03  1.7419071E-03  1.3483112E-03  9.9816348E-04  7.7035296E-04  5.6128978E-04  4.2247702E-04  3.0027138E-04  2.2941793E-04  1.2333442E-04  7.1528579E-05  5.4959848E-05  4.8839473E-05  4.5069482E-05  0.0000000E+00
 chandeg          117   58.29660      1.6738634E-04  0.0000000E+00  0.5054203      0.1258357      8.4476046E-02  6.7839712E-02  6.0301226E-02  5.3958837E-02  3.8300373E-02  2.3933122E-02  1.8499535E-02  1.5696470E-02  1.2372768E-02  1.0001825E-02  8.2109300E-03  6.7840009E-03  5.5043194E-03  4.6711443E-03  4.0087267E-03  3.3029586E-03  2.5592905E-03  2.0354935E-03  1.6362097E-03  1.1767161E-03  7.7252625E-04  5.0963729E-04  3.1911390E-04  2.4376703E-04  2.1896011E-04  2.0844713E-04  3.2812644E-15
 chandeg          150   3.208500      7.6108990E-05  0.0000000E+00  6.1710060E-02  1.9393122E-02  1.2364759E-02  8.8189989E-03  4.3905671E-03  3.1184372E-03  1.6755855E-03  1.0073012E-03  8.7701983E-04  7.5159763E-04  7.0117693E-04  6.4558414E-04  5.8549299E-04  5.1056989E-04  4.7290311E-04  4.4747003E-04  4.0268272E-04  3.6932749E-04  3.2977317E-04  2.3900041E-04  2.1205693E-04  1.7574597E-04  1.4298622E-04  8.6488857E-05  5.9713373E-05  4.9955885E-05  4.5156718E-05  4.1685598E-05  0.0000000E+00
 chandeg          151   26.45290      7.0727561E-05  0.0000000E+00  7.5781427E-02  2.5393542E-02  1.7121423E-02  1.1872694E-02  6.5935156E-03  4.3460028E-03  2.4415839E-03  1.4965301E-03  1.2017902E-03  1.0967015E-03  1.0138527E-03  9.5927785E-04  8.7276450E-04  7.7608629E-04  7.2977535E-04  6.9568504E-04  6.4268970E-04  5.9614045E-04  4.7522798E-04  3.7205699E-04  3.1842900E-04  2.8132834E-04  2.0474558E-04  1.3875094E-04  9.6487194E-05  8.6506254E-05  7.8725912E-05  6.9268426E-05  0.0000000E+00
 chandeg          163  9.9999997E-06  1.7666015E-04  0.0000000E+00  0.2332229      3.7907973E-02  3.1753670E-02  2.8199576E-02  2.5822069E-02  2.3820577E-02  1.9972945E-02  1.2880918E-02  9.9988850E-03  7.7917143E-03  6.1076749E-03  5.1614312E-03  3.9922940E-03  3.0333868E-03  2.3241055E-03  1.7419071E-03  1.3483113E-03  9.9552097E-04  7.7035296E-04  5.6128972E-04  4.2247702E-04  3.0027138E-04  2.2941794E-04  1.2333442E-04  7.1674018E-05  5.5091677E-05  5.0371913E-05  4.5488327E-05  0.0000000E+00
 chandeg          177  9.9999997E-06  1.0830817E-04  0.0000000E+00  6.2114891E-02  4.1150767E-02  4.1140944E-02  4.0727597E-02  3.9740633E-02  3.9141715E-02  3.6532920E-02  3.5074160E-02  3.3794779E-02  3.2539222E-02  3.1634435E-02  3.1121744E-02  3.0661071E-02  3.0365488E-02  2.9916469E-02  2.9169995E-02  2.8317701E-02  2.7972935E-02  2.7765924E-02  2.7086664E-02  2.6578000E-02  2.5776684E-02  2.4347950E-02  2.2189653E-02  1.5809767E-02  1.1191243E-02  7.1613975E-03  1.7001210E-03  0.0000000E+00
 chandeg          202   7.104100      1.2006130E-05  0.0000000E+00  0.2539651      0.1686015      0.1258139      9.3052208E-02  7.2237700E-02  5.7263888E-02  4.0075120E-02  1.9554118E-02  8.8168401E-03  3.6811747E-03  1.8915740E-03  1.2312218E-03  8.9450908E-04  7.3080696E-04  6.6875899E-04  6.2537752E-04  5.8328290E-04  5.4515293E-04  4.9898535E-04  4.5059060E-04  4.1391386E-04  3.6824212E-04  3.1540435E-04  2.6210188E-04  1.9273671E-04  1.4694284E-04  1.2840303E-04  1.0718883E-04  0.0000000E+00
 chandeg            9   27.36430      1.5720804E-04  0.0000000E+00  0.4361408      0.1162884      9.1046765E-02  6.2300224E-02  4.9174890E-02  4.5024648E-02  3.7486944E-02  2.6719747E-02  2.0163083E-02  1.5324325E-02  1.3305394E-02  9.8967031E-03  8.6174263E-03  7.6104398E-03  6.2449039E-03  4.7075609E-03  3.7713842E-03  2.9475305E-03  2.5039804E-03  2.0587703E-03  1.6662520E-03  1.2162707E-03  9.0056728E-04  4.5168307E-04  2.4793975E-04  1.8735214E-04  1.4350777E-04  1.3564412E-04  0.0000000E+00
 chandeg           64   46.89140      1.7233985E-04  0.0000000E+00  7.4221931E-02  2.2724133E-02  2.2046817E-02  2.0933164E-02  1.8781273E-02  1.5989114E-02  1.2524279E-02  8.5007632E-03  6.5211086E-03  4.9734511E-03  3.7519312E-03  2.8706712E-03  2.1577643E-03  1.8687559E-03  1.6740599E-03  1.4015251E-03  1.1530692E-03  9.7970711E-04  8.6591922E-04  7.1202836E-04  5.3944142E-04  4.1963515E-04  2.9635278E-04  1.7076595E-04  8.7668072E-05  6.0305669E-05  4.9463761E-05  4.1485135E-05  0.0000000E+00
 chandeg           70   13.46306      4.4475215E-05  0.0000000E+00  7.6203831E-02  3.9392989E-02  3.1138107E-02  2.0670753E-02  1.5172676E-02  1.1549073E-02  8.0848988E-03  3.7984746E-03  1.8546359E-03  1.2140704E-03  9.3632488E-04  8.0116093E-04  6.7982799E-04  5.8963924E-04  5.2265072E-04  4.4009765E-04  3.8637489E-04  3.3911207E-04  2.8554647E-04  2.4440401E-04  2.1864675E-04  1.8461759E-04  1.5978895E-04  1.3435865E-04  1.0148703E-04  8.2091377E-05  7.3573770E-05  6.8460897E-05  5.7267892E-16
 chandeg           80   3.387800      1.3002313E-05  0.0000000E+00  9.2230298E-02  3.2053743E-02  2.2867156E-02  1.1229641E-02  6.2074005E-03  3.2496611E-03  1.9273822E-03  1.0313441E-03  6.7861337E-04  4.1485578E-04  2.3111973E-04  1.7172207E-04  1.1867125E-04  7.0140537E-05  4.2830517E-05  2.2909915E-05  1.5494605E-05  1.1627304E-05  8.3707782E-06  6.1509877E-06  5.4493362E-06  4.5265297E-06  3.1842505E-06  1.7218509E-06  5.7903054E-07  3.4460246E-07  2.5692788E-07  2.1744457E-07  0.0000000E+00
 chandeg          116   58.30835      1.6742224E-04  0.0000000E+00  0.5053707      0.1219121      8.3020955E-02  6.7487821E-02  6.0228944E-02  5.3585414E-02  3.8622703E-02  2.4145521E-02  1.8522920E-02  1.5784401E-02  1.2100332E-02  9.8076714E-03  8.1628207E-03  6.7697023E-03  5.4502888E-03  4.7260220E-03  4.0097502E-03  3.2447418E-03  2.6078955E-03  2.0768649E-03  1.6783774E-03  1.1861679E-03  7.7902916E-04  5.5540807E-04  3.4117486E-04  2.4505000E-04  2.2216175E-04  2.0894092E-04  0.0000000E+00
 chandeg          154   7.241200      1.2216746E-05  0.0000000E+00  0.2536828      0.1683076      0.1257177      9.2818737E-02  7.2069034E-02  5.7123926E-02  3.9957464E-02  1.9487489E-02  8.7808371E-03  3.7696534E-03  1.9633102E-03  1.2297307E-03  9.0975285E-04  7.4239157E-04  6.7374704E-04  6.3055946E-04  5.8587553E-04  5.4628454E-04  4.9932214E-04  4.5059060E-04  4.1391444E-04  3.6991204E-04  3.1543849E-04  2.6210252E-04  1.9375580E-04  1.4694378E-04  1.2840306E-04  1.0718888E-04  0.0000000E+00
 chandeg          155   8.028100      1.3518529E-05  0.0000000E+00  0.2543498      0.1676397      0.1270943      9.3363062E-02  7.1642444E-02  5.6884669E-02  3.9919220E-02  2.0683583E-02  9.0138353E-03  4.0040226E-03  2.1790154E-03  1.3692004E-03  9.9625904E-04  7.9880597E-04  7.2507589E-04  6.6490506E-04  6.0664193E-04  5.6432188E-04  5.1673432E-04  4.6582177E-04  4.2048722E-04  3.7618433E-04  3.2186686E-04  2.6689234E-04  1.9409774E-04  1.4718619E-04  1.2842313E-04  1.0725555E-04  6.5641623E-16
 chandeg          156   8.179100      1.3585483E-05  0.0000000E+00  0.2542261      0.1674792      0.1270503      9.3258739E-02  7.1568705E-02  5.6822997E-02  3.9908826E-02  2.0652656E-02  8.9979097E-03  4.0480350E-03  2.2392790E-03  1.3888339E-03  9.9741842E-04  8.0131507E-04  7.2732545E-04  6.6514895E-04  6.0665054E-04  5.6557159E-04  5.1786547E-04  4.6687608E-04  4.2049430E-04  3.7619189E-04  3.2186689E-04  2.6689234E-04  1.9409774E-04  1.4718619E-04  1.2842313E-04  1.0725555E-04  0.0000000E+00
 chandeg          164   28.34932      1.5560571E-04  0.0000000E+00  0.4361408      0.1162550      9.1013499E-02  6.2300224E-02  4.9174882E-02  4.5024656E-02  3.7486944E-02  2.6730279E-02  2.0165579E-02  1.5332650E-02  1.3305388E-02  9.8966919E-03  8.6228689E-03  7.5981896E-03  6.2469807E-03  4.6978164E-03  3.7733677E-03  2.9477300E-03  2.5137248E-03  2.0635221E-03  1.6662601E-03  1.2153544E-03  9.0056745E-04  4.5709856E-04  2.5104635E-04  1.8735213E-04  1.4352650E-04  1.3566377E-04  0.0000000E+00
 chandeg          178  9.9999997E-06  1.0692003E-04  0.0000000E+00  7.4188218E-02  4.0301394E-02  4.0249843E-02  4.0037937E-02  3.9378669E-02  3.9093055E-02  3.6900438E-02  3.4845810E-02  3.3417221E-02  3.2669231E-02  3.1880353E-02  3.1175563E-02  3.0709079E-02  3.0310301E-02  2.9850759E-02  2.9388757E-02  2.8286122E-02  2.7923338E-02  2.7664088E-02  2.6882440E-02  2.6316399E-02  2.5237350E-02  2.3990965E-02  2.1999257E-02  1.6175335E-02  1.2443760E-02  1.0018202E-02  2.6919614E-03  0.0000000E+00
 chandeg          229   28.45330      1.4631533E-04  0.0000000E+00  0.4421189      0.1184068      9.7080804E-02  6.3885726E-02  4.9174882E-02  4.5024656E-02  3.7486944E-02  2.7748255E-02  2.1597790E-02  1.7237067E-02  1.4763756E-02  1.0406832E-02  8.9299353E-03  7.8298431E-03  6.2469807E-03  4.6792375E-03  3.7508421E-03  2.9150478E-03  2.5005455E-03  2.0761478E-03  1.6709135E-03  1.2156413E-03  9.2258787E-04  4.9692910E-04  2.5734937E-04  1.8878747E-04  1.5388240E-04  1.3762998E-04  0.0000000E+00
 chandeg          230   34.19940      1.4383721E-04  0.0000000E+00  0.4437684      0.1201001      9.8799370E-02  6.5628275E-02  4.9173560E-02  4.5027357E-02  3.7484303E-02  2.7846055E-02  2.1999123E-02  1.7588554E-02  1.4787882E-02  1.0409325E-02  8.9287022E-03  7.8261681E-03  6.2469807E-03  4.6778098E-03  3.7448842E-03  2.9138410E-03  2.4958013E-03  2.0761478E-03  1.6703776E-03  1.2168315E-03  9.2858280E-04  4.9692910E-04  2.5734937E-04  1.8996133E-04  1.5388994E-04  1.3763004E-04  0.0000000E+00
 chandeg          265   7.866700      8.1855018E-05  0.0000000E+00  9.2999555E-02  3.2856502E-02  2.3565330E-02  1.1341687E-02  7.0886882E-03  4.2073629E-03  2.8419399E-03  1.9461081E-03  1.5594279E-03  1.2456528E-03  1.1754594E-03  1.0467591E-03  9.9594495E-04  3.5506324E-04  6.0272090E-05  3.8077458E-05  1.5846161E-05  1.1627304E-05  8.3707782E-06  6.1509877E-06  5.4493357E-06  4.5265297E-06  3.1842505E-06  1.7218509E-06  5.7903054E-07  3.5048163E-07  2.5692788E-07  2.1744455E-07  0.0000000E+00
 chandeg          266   13.40890      1.7925845E-04  0.0000000E+00  0.1041157      4.2017091E-02  3.3319328E-02  2.0335587E-02  1.3813448E-02  1.1920027E-02  1.1248349E-02  1.0602860E-02  1.0333263E-02  1.0186314E-02  9.8974407E-03  8.9876736E-03  7.8792265E-03  3.7338692E-03  3.3233289E-03  2.3140355E-03  1.7420297E-03  1.3189176E-03  7.0335309E-04  4.0679198E-04  1.9531933E-04  1.0271406E-04  5.2182371E-05  2.6450069E-05  1.3016271E-05  9.4561146E-06  8.3274681E-06  6.8130612E-06  0.0000000E+00
 chandeg            5   35.33239      1.4322605E-04  0.0000000E+00  0.4733800      0.1249467      0.1027573      6.7570217E-02  5.2700609E-02  4.7620110E-02  3.9208282E-02  2.8866502E-02  2.3246156E-02  1.9226920E-02  1.5860051E-02  1.1488806E-02  9.3626808E-03  8.1463726E-03  6.9327191E-03  5.1575019E-03  4.1736318E-03  3.4319093E-03  2.8789337E-03  2.3735825E-03  1.9266995E-03  1.3328745E-03  1.0021685E-03  6.1668525E-04  2.7426262E-04  2.1021940E-04  1.7637915E-04  1.5008693E-04  7.5397002E-16
 chandeg           24   16.26630      1.7491724E-05  0.0000000E+00  0.3067390      0.1748031      0.1396816      9.7855791E-02  7.6873995E-02  5.6010105E-02  4.1539289E-02  2.0603975E-02  9.3628159E-03  4.7590663E-03  2.6533999E-03  1.6569033E-03  1.0804271E-03  8.7527838E-04  7.6688110E-04  6.9753802E-04  6.3034735E-04  5.7414878E-04  5.2527204E-04  4.7997560E-04  4.2432020E-04  3.8852970E-04  3.2334670E-04  2.6783653E-04  1.9514993E-04  1.4754153E-04  1.3038938E-04  1.1655682E-04  3.2345033E-15
 chandeg           79   13.67240      1.8285502E-04  0.0000000E+00  0.1059296      4.3062955E-02  3.3985022E-02  2.1039130E-02  1.5262282E-02  1.2880754E-02  1.2125157E-02  1.1158779E-02  1.0744230E-02  1.0345994E-02  1.0090124E-02  9.2106517E-03  7.8811422E-03  4.2273025E-03  3.6571075E-03  2.4651336E-03  1.8453464E-03  1.3736894E-03  7.5980584E-04  4.8343645E-04  2.9187126E-04  1.3534393E-04  6.5868029E-05  3.2043827E-05  1.8334611E-05  1.4822815E-05  1.1460640E-05  9.3164708E-06  0.0000000E+00
 chandeg          102  9.9999997E-06  1.0691783E-04  0.0000000E+00  7.4470855E-02  4.0301394E-02  4.0249847E-02  4.0038168E-02  3.9378900E-02  3.9093055E-02  3.6900893E-02  3.4845814E-02  3.3417221E-02  3.2669015E-02  3.1880137E-02  3.1175347E-02  3.0708866E-02  3.0310299E-02  2.9850759E-02  2.9388757E-02  2.8286122E-02  2.7923334E-02  2.7664088E-02  2.6882440E-02  2.6316399E-02  2.5237156E-02  2.3990773E-02  2.1999069E-02  1.6176537E-02  1.2443459E-02  1.0019359E-02  2.6889604E-03  0.0000000E+00
 chandeg          179   45.42190      1.0999627E-04  0.0000000E+00  7.6352678E-02  4.0914726E-02  4.0884741E-02  4.0704153E-02  4.0217344E-02  3.9641507E-02  3.7622612E-02  3.5195220E-02  3.3646677E-02  3.2945707E-02  3.2075655E-02  3.1340510E-02  3.0888731E-02  3.0402290E-02  2.9990995E-02  2.9426957E-02  2.8286127E-02  2.7929174E-02  2.7664093E-02  2.6882445E-02  2.6316442E-02  2.5237156E-02  2.3990763E-02  2.1999063E-02  1.6184730E-02  1.2443474E-02  1.0032726E-02  2.7067445E-03  0.0000000E+00
 chandeg          232  9.9999997E-06  1.4241818E-04  0.0000000E+00  0.4740159      0.1255807      0.1034027      6.8216376E-02  5.2700609E-02  4.7620110E-02  3.9283305E-02  2.8866503E-02  2.3246156E-02  1.9232566E-02  1.5865682E-02  1.1488805E-02  9.3626808E-03  8.1493314E-03  6.9164289E-03  5.1575019E-03  4.1744066E-03  3.4316953E-03  2.8789339E-03  2.3725859E-03  1.9224557E-03  1.3367339E-03  1.0015881E-03  6.1881368E-04  2.7426329E-04  2.1171758E-04  1.7670923E-04  1.5023966E-04  0.0000000E+00
 chandeg          269   28.72050      2.1179188E-04  0.0000000E+00  0.2596240      7.9393022E-02  7.0881911E-02  6.2312588E-02  5.7318244E-02  5.0938547E-02  4.2462442E-02  2.4935331E-02  1.8723497E-02  1.3755042E-02  1.0329997E-02  7.8485506E-03  6.0091787E-03  4.5678136E-03  3.7056752E-03  3.0542221E-03  2.4748086E-03  1.4050880E-03  9.3808846E-04  6.5993081E-04  4.8406725E-04  3.8188876E-04  2.3597642E-04  1.3543782E-04  7.2204544E-05  5.8665661E-05  4.4767352E-05  3.7322199E-05  0.0000000E+00
 chandeg          270   33.80220      2.1289656E-04  0.0000000E+00  0.2594823      8.6218655E-02  7.4898846E-02  6.3798428E-02  6.2321298E-02  5.7425041E-02  4.5952436E-02  3.1567998E-02  2.4134545E-02  1.8938717E-02  1.5591620E-02  1.3067358E-02  1.1625187E-02  9.9419225E-03  9.1043077E-03  5.9165377E-03  2.7502805E-03  1.4856801E-03  9.6132560E-04  7.3827157E-04  4.9716630E-04  3.8188876E-04  2.3736081E-04  1.3543791E-04  7.2204537E-05  5.8665668E-05  4.4767356E-05  3.7322203E-05  0.0000000E+00
 chandeg          277   35.60880      2.1143563E-04  0.0000000E+00  0.2723288      8.7955669E-02  7.7972308E-02  6.6382676E-02  6.3134238E-02  5.7560708E-02  4.6161037E-02  3.1885311E-02  2.4884036E-02  1.9173229E-02  1.5982550E-02  1.3295671E-02  1.2193623E-02  1.0522502E-02  9.3814312E-03  6.2085227E-03  3.1878403E-03  1.6814041E-03  1.1219190E-03  7.5903948E-04  5.9860409E-04  4.1392513E-04  2.5151766E-04  1.4370974E-04  7.8092315E-05  6.5989458E-05  5.5745626E-05  4.6452995E-05  0.0000000E+00
 chandeg          108   36.97320      3.9621194E-05  0.0000000E+00  0.1416744      7.9026312E-02  5.2894130E-02  3.5577647E-02  2.0293122E-02  1.5814129E-02  7.7470639E-03  2.2816735E-03  1.8439094E-03  1.6091493E-03  1.4667333E-03  1.3742988E-03  1.2569053E-03  1.1242592E-03  1.0606134E-03  9.6717267E-04  8.6053071E-04  8.0023630E-04  7.5127202E-04  6.1454845E-04  5.4616987E-04  4.6966563E-04  3.6010161E-04  2.9772503E-04  2.0609135E-04  1.5062743E-04  1.3332193E-04  1.1144709E-04  8.1710706E-16
 chandeg          152   38.04100      2.0815743E-04  0.0000000E+00  0.3075062      0.1202002      0.1059745      9.4196081E-02  9.0456799E-02  7.9428330E-02  6.5741420E-02  4.4817396E-02  3.5038445E-02  2.7427090E-02  2.2895372E-02  1.9281060E-02  1.7640859E-02  1.5242047E-02  1.3764291E-02  1.0722873E-02  6.0711354E-03  3.0666629E-03  1.8607620E-03  1.0959175E-03  9.2312496E-04  6.3244224E-04  3.8631968E-04  2.5511315E-04  1.0744584E-04  8.2659542E-05  7.6260854E-05  6.7194174E-05  0.0000000E+00
 chandeg          153   40.52890      2.0860659E-04  0.0000000E+00  0.3041705      0.1200533      0.1059260      9.4169810E-02  8.9910462E-02  7.9404421E-02  6.5832630E-02  4.4509582E-02  3.4994751E-02  2.7443867E-02  2.2815278E-02  1.9313576E-02  1.7645542E-02  1.5242566E-02  1.3777029E-02  1.0670859E-02  6.1101308E-03  3.0850980E-03  1.8345121E-03  1.1517503E-03  9.2611037E-04  6.3255877E-04  3.7364985E-04  2.5753633E-04  1.0744767E-04  9.1477443E-05  7.9405283E-05  6.7735280E-05  0.0000000E+00
 chandeg          180  9.9999997E-06  1.0882938E-04  0.0000000E+00  7.5129531E-02  4.0238399E-02  4.0224947E-02  4.0151060E-02  3.9926063E-02  3.9337233E-02  3.7725046E-02  3.5025876E-02  3.3607978E-02  3.3063117E-02  3.2077055E-02  3.1579025E-02  3.1066721E-02  3.0687135E-02  3.0349759E-02  2.9585427E-02  2.8120616E-02  2.7916353E-02  2.7580615E-02  2.6806386E-02  2.5798665E-02  2.5154795E-02  2.3960365E-02  2.1951718E-02  1.5953558E-02  1.1528667E-02  9.7655132E-03  8.4960312E-03  0.0000000E+00
 chandeg          186   16.59160      3.5178204E-05  0.0000000E+00  0.2516389      0.1220819      8.9510091E-02  5.9453491E-02  3.6280207E-02  2.7605904E-02  1.6492011E-02  6.4700521E-03  2.6929476E-03  2.0273835E-03  1.7238714E-03  1.5607420E-03  1.3915907E-03  1.2638090E-03  1.1085793E-03  9.8991743E-04  8.9508120E-04  7.8948418E-04  6.7557936E-04  5.8035314E-04  4.8513696E-04  4.0216124E-04  3.2395057E-04  2.5514510E-04  1.8464700E-04  1.6368408E-04  1.4497279E-04  1.2851732E-04  0.0000000E+00
 chandeg          187  0.1686000      3.2745967E-05  0.0000000E+00  0.2516389      0.1220537      8.9510083E-02  5.9428345E-02  3.6276426E-02  2.7573550E-02  1.6461277E-02  7.9519190E-03  2.7093450E-03  2.0392197E-03  1.7244478E-03  1.5623594E-03  1.3933633E-03  1.2657067E-03  1.1085806E-03  9.9016202E-04  8.9546660E-04  7.8971067E-04  6.7602092E-04  5.8056269E-04  4.8533938E-04  4.0235525E-04  3.2413617E-04  2.5532229E-04  1.8498577E-04  1.6384719E-04  1.4513169E-04  1.2851873E-04  0.0000000E+00
 chandeg          231   37.73400      1.3754137E-04  0.0000000E+00  0.5078191      0.1359450      0.1132358      7.5587913E-02  5.8504920E-02  5.1167559E-02  4.3337200E-02  3.2754775E-02  2.6721975E-02  2.1699715E-02  1.7730968E-02  1.2318258E-02  1.0274086E-02  8.9443717E-03  7.4611474E-03  6.0207234E-03  4.9236882E-03  4.0798015E-03  3.4075920E-03  2.6269525E-03  2.0503246E-03  1.4792701E-03  1.0904243E-03  6.8101444E-04  3.0044894E-04  2.1908156E-04  1.8325812E-04  1.5899028E-04  6.8081967E-16
 chandeg          233   43.34950      1.8888216E-04  0.0000000E+00  0.6335119      0.1857770      0.1591799      0.1254363      0.1112176      0.1055445      9.7595528E-02  8.5929066E-02  7.6183408E-02  6.8156876E-02  6.1655600E-02  5.7063520E-02  4.7679029E-02  2.3580709E-02  1.6828999E-02  1.2192915E-02  9.1203665E-03  6.2911189E-03  4.6737376E-03  3.0630969E-03  2.3739152E-03  1.8019004E-03  1.2771690E-03  7.7568012E-04  3.6217246E-04  2.5369722E-04  2.1336639E-04  1.8756468E-04  6.0626627E-16
 chandeg          267   7.873500      1.8699368E-04  0.0000000E+00  0.1823549      4.7250960E-02  3.0205682E-02  1.5584277E-02  8.9793652E-03  7.7150385E-03  7.6278388E-03  7.5912350E-03  7.5658751E-03  7.5336182E-03  7.4703027E-03  7.3643331E-03  7.1664597E-03  1.1177698E-04  4.2996620E-05  3.2249598E-05  2.0952819E-05  1.3041125E-05  8.8403522E-06  6.2785898E-06  4.5281981E-06  2.8311658E-06  2.3052571E-06  1.6189958E-06  9.8746887E-07  7.7946584E-07  6.7328392E-07  5.8126204E-07  0.0000000E+00
 chandeg          268  9.9999997E-06  1.9856318E-04  0.0000000E+00  0.1867772      4.8251569E-02  3.2684177E-02  2.0077674E-02  1.3408314E-02  1.2190952E-02  1.2113265E-02  1.2074802E-02  1.2038905E-02  1.1982782E-02  1.1892067E-02  1.1726787E-02  1.1396045E-02  1.0257257E-04  4.3633252E-05  3.2630909E-05  2.0790529E-05  1.3592028E-05  9.4761699E-06  6.6479952E-06  4.5954735E-06  2.9384448E-06  2.3211553E-06  1.6382884E-06  1.0288890E-06  8.0862117E-07  6.8770350E-07  6.0515845E-07  0.0000000E+00
 chandeg            7   44.39870      1.8897658E-04  0.0000000E+00  0.6322095      0.1852565      0.1588673      0.1251951      0.1105535      0.1055648      9.7575627E-02  8.5949145E-02  7.6167352E-02  6.8077788E-02  6.1655793E-02  5.7063524E-02  4.7531795E-02  2.3511637E-02  1.6846661E-02  1.2193242E-02  9.2757484E-03  6.2547605E-03  4.6737376E-03  3.0946343E-03  2.3911165E-03  1.8170632E-03  1.2771687E-03  7.8103965E-04  3.6438042E-04  2.5369719E-04  2.1041524E-04  1.8757774E-04  0.0000000E+00
 chandeg           92   20.42174      1.6960254E-04  0.0000000E+00  0.1881849      6.9468394E-02  5.7775479E-02  3.6465678E-02  1.9140778E-02  1.4402885E-02  1.1674563E-02  7.5233150E-03  5.3050420E-03  3.8495653E-03  2.8958835E-03  2.2996215E-03  1.8465766E-03  1.4483886E-03  1.2390477E-03  9.8477537E-04  8.3466643E-04  6.7977118E-04  5.5871689E-04  4.0246779E-04  3.2215097E-04  2.3378393E-04  1.6922680E-04  9.2982620E-05  6.1641767E-05  3.5949652E-05  2.8330278E-05  2.5993431E-05  0.0000000E+00
 chandeg           93   27.88220      1.2045190E-04  0.0000000E+00  0.3366104      0.1321696      0.1071295      6.2825352E-02  3.2923870E-02  2.3737747E-02  1.8492403E-02  1.0477160E-02  8.3163753E-03  6.5679499E-03  5.2831224E-03  4.4999626E-03  3.9970940E-03  3.6055085E-03  3.2416251E-03  2.9383914E-03  2.7010725E-03  2.4442752E-03  2.1381350E-03  1.7973151E-03  1.4571081E-03  1.3230090E-03  1.0319711E-03  8.0006756E-04  6.7259494E-04  5.6993088E-04  5.2779302E-04  5.0480169E-04  1.9322897E-15
 chandeg          107   40.77810      9.8936398E-05  0.0000000E+00  0.4951909      0.2239234      0.1579139      9.9444814E-02  5.3809352E-02  3.6189735E-02  2.7119486E-02  1.4985030E-02  1.1642493E-02  9.6122259E-03  8.0944058E-03  6.8951086E-03  6.1503812E-03  5.4433178E-03  4.8779235E-03  4.5632506E-03  4.2237109E-03  3.8351514E-03  3.4008403E-03  3.0492677E-03  2.6251620E-03  2.1242448E-03  1.8040207E-03  1.4792212E-03  1.0505210E-03  9.2223636E-04  8.8321476E-04  8.4373896E-04  0.0000000E+00
 chandeg          112   9.873200      1.9154252E-04  0.0000000E+00  0.2112304      5.2798569E-02  3.5063889E-02  2.1428242E-02  1.3705905E-02  1.3240814E-02  1.3047158E-02  1.2674646E-02  1.2499318E-02  1.2342098E-02  1.2228717E-02  1.2012103E-02  1.1616683E-02  8.0238958E-04  4.1551088E-04  2.7359262E-04  1.7143998E-04  1.4218219E-04  9.7926073E-05  7.7339166E-05  6.2455212E-05  4.3558910E-05  3.1336029E-05  1.3198109E-05  7.1344143E-06  4.0877699E-06  2.5057891E-06  2.0244127E-06  0.0000000E+00
 chandeg          113   10.14360      1.9150962E-04  0.0000000E+00  0.2092469      5.1915310E-02  3.4058351E-02  2.1211246E-02  1.4124141E-02  1.3261990E-02  1.3047158E-02  1.2675479E-02  1.2435809E-02  1.2346295E-02  1.2218188E-02  1.2012105E-02  1.1639520E-02  8.0440502E-04  4.1823176E-04  2.8449020E-04  1.7481930E-04  1.4220410E-04  9.6586897E-05  7.6121105E-05  6.3059066E-05  4.4050914E-05  3.1336371E-05  1.3483793E-05  7.1776421E-06  4.0977343E-06  2.5243467E-06  2.1604351E-06  0.0000000E+00
 chandeg          120   40.24120      8.3136823E-05  0.0000000E+00  0.4807964      0.2349572      0.1705163      0.1117059      7.0121512E-02  4.7375683E-02  3.0036923E-02  1.8380651E-02  1.3559764E-02  1.0604649E-02  8.5308030E-03  7.0256791E-03  6.0224440E-03  5.2468553E-03  4.6634111E-03  4.0550781E-03  3.5610711E-03  3.1950704E-03  2.8677036E-03  2.3287092E-03  1.8462946E-03  1.6147227E-03  1.2606820E-03  1.0613697E-03  7.9067220E-04  6.1121903E-04  5.0254149E-04  4.2710308E-04  0.0000000E+00
 chandeg          170   1.489200      1.9962327E-04  0.0000000E+00  2.7283331E-02  2.2914246E-02  2.2677787E-02  2.2074321E-02  2.1385061E-02  2.0097215E-02  1.7882781E-02  1.4318675E-02  1.1822307E-02  9.1407429E-03  7.1554487E-03  5.5394322E-03  4.3484243E-03  3.4269472E-03  2.6838386E-03  2.0405261E-03  1.5474719E-03  1.2031053E-03  8.3484594E-04  6.0447631E-04  3.0778782E-04  2.2224407E-04  1.1874405E-04  6.9259768E-05  3.8158054E-05  2.9396318E-05  1.8535189E-05  1.0610753E-05  0.0000000E+00
 chandeg          181  9.9999997E-06  1.0710059E-04  0.0000000E+00  7.9335980E-02  3.9821286E-02  3.9806914E-02  3.9755836E-02  3.9607581E-02  3.9135508E-02  3.7649743E-02  3.5001375E-02  3.3804797E-02  3.3147909E-02  3.2314345E-02  3.1607348E-02  3.1111458E-02  3.0822845E-02  3.0467123E-02  2.9706068E-02  2.8123189E-02  2.7938187E-02  2.7342778E-02  2.6846537E-02  2.5657948E-02  2.4448132E-02  2.3906406E-02  2.1513510E-02  1.5343644E-02  1.2353026E-02  1.1410932E-02  1.0699119E-02  0.0000000E+00
 chandeg          234   46.08034      1.8684821E-04  0.0000000E+00  0.6552374      0.1896824      0.1621771      0.1269550      0.1127203      0.1073916      9.9568695E-02  8.7123498E-02  7.8322120E-02  6.8929031E-02  6.2271710E-02  5.7338759E-02  4.8117682E-02  2.4363767E-02  1.7410425E-02  1.2689653E-02  9.6866358E-03  6.6253548E-03  5.0788624E-03  3.1940618E-03  2.4720652E-03  1.8445185E-03  1.3100358E-03  8.1655185E-04  3.8267445E-04  2.6615243E-04  2.1778206E-04  1.9665434E-04  5.7958632E-16
 chandeg          241   46.29810      1.8890014E-04  0.0000000E+00  0.6986821      0.2097019      0.1774909      0.1379074      0.1291675      0.1234215      0.1159159      0.1017366      7.9779357E-02  7.0308253E-02  6.3442014E-02  5.7987180E-02  4.9307939E-02  2.6056338E-02  1.8338135E-02  1.3233280E-02  1.0214968E-02  7.5330082E-03  5.6409263E-03  3.3272719E-03  2.6463615E-03  2.0858212E-03  1.4383370E-03  8.6211355E-04  4.4194836E-04  3.2778727E-04  2.6537976E-04  2.1499365E-04  1.9777188E-15
 chandeg          242   54.31770      1.8967493E-04  0.0000000E+00  0.6988789      0.2101411      0.1774612      0.1384651      0.1297402      0.1239614      0.1164733      0.1020585      7.9748578E-02  7.0313416E-02  6.3442014E-02  5.7987180E-02  4.9263746E-02  2.6033020E-02  1.8328786E-02  1.3237951E-02  1.0210425E-02  7.5375810E-03  5.6409547E-03  3.3361460E-03  2.6463617E-03  2.0852473E-03  1.4427343E-03  8.6647941E-04  4.4617927E-04  3.2778727E-04  2.6537976E-04  2.1499698E-04  0.0000000E+00
 chandeg          273   40.79160      1.4302231E-04  0.0000000E+00  0.5133117      0.2238815      0.1659257      0.1172621      6.4063087E-02  5.3046659E-02  4.0266555E-02  3.0184070E-02  2.7641101E-02  2.5551928E-02  2.4341583E-02  2.3414191E-02  2.2406302E-02  2.1578131E-02  1.4706792E-02  8.0072060E-03  5.8944575E-03  4.6175434E-03  4.1274680E-03  3.1800980E-03  2.6594545E-03  2.2074385E-03  1.8040207E-03  1.4792212E-03  1.0505210E-03  9.2223624E-04  8.8321476E-04  8.4373896E-04  0.0000000E+00
 chandeg          289   18.73560      1.4514799E-04  0.0000000E+00  0.1395991      2.5745131E-02  2.3292955E-02  1.2627050E-02  1.0040924E-02  7.6363604E-03  6.5539693E-03  6.1479066E-03  6.1393115E-03  6.1281961E-03  6.1116181E-03  6.0942005E-03  6.0720555E-03  6.0344879E-03  5.9808102E-03  5.8482545E-03  5.5157011E-06  2.6048767E-06  4.9520588E-07  5.8617982E-08  6.9136155E-09  1.0791323E-10  0.0000000E+00  0.0000000E+00  0.0000000E+00  0.0000000E+00  0.0000000E+00  0.0000000E+00  0.0000000E+00
 chandeg            8   2.214800      1.8681993E-04  0.0000000E+00  0.7706274      0.2353750      0.1910452      0.1423113      0.1324667      0.1258252      0.1189631      0.1038072      8.1900172E-02  7.1224995E-02  6.5000705E-02  5.8656968E-02  5.0465539E-02  2.7581422E-02  1.8666122E-02  1.3918696E-02  1.1105983E-02  8.1035560E-03  6.4394819E-03  3.8338720E-03  2.9455971E-03  2.3236813E-03  1.7556181E-03  1.1013481E-03  6.0945854E-04  4.3161356E-04  3.2827895E-04  2.7387129E-04  4.3863450E-16
 chandeg          103  9.9999997E-06  1.0610789E-04  0.0000000E+00  8.0726869E-02  3.9465956E-02  3.9465882E-02  3.9400984E-02  3.9139818E-02  3.8671836E-02  3.7422311E-02  3.4776028E-02  3.3806540E-02  3.3329580E-02  3.2295957E-02  3.1794440E-02  3.1277377E-02  3.0905737E-02  3.0323526E-02  2.9840034E-02  2.8122723E-02  2.7920671E-02  2.7197240E-02  2.6225323E-02  2.5784211E-02  2.4506791E-02  2.3908867E-02  2.1083243E-02  1.6758030E-02  1.5914051E-02  1.5716039E-02  5.0240080E-03  0.0000000E+00
 chandeg          132   10.60920      1.8910681E-04  0.0000000E+00  6.8546422E-02  2.9458672E-02  2.6100721E-02  2.3391403E-02  2.1312095E-02  1.8470017E-02  1.3476744E-02  8.4500602E-03  6.9568520E-03  5.3938478E-03  4.0961024E-03  2.8969334E-03  2.3409852E-03  2.0199521E-03  1.5670017E-03  1.3265053E-03  1.1001059E-03  9.1168634E-04  6.8927341E-04  4.9700827E-04  3.4891005E-04  2.3356495E-04  1.2503454E-04  5.3030610E-05  1.8463737E-05  1.2068785E-05  9.1609536E-06  6.8049089E-06  0.0000000E+00
 chandeg          133   24.32460      2.1265828E-04  0.0000000E+00  0.1990632      9.4880551E-02  8.3015233E-02  7.7030241E-02  7.1102448E-02  6.1468478E-02  4.3847308E-02  2.7107412E-02  2.2012791E-02  1.5957577E-02  1.2402015E-02  9.2379898E-03  7.3312023E-03  5.4366160E-03  4.1885790E-03  3.6084603E-03  2.9077190E-03  2.2847364E-03  1.6307455E-03  1.3261933E-03  1.0168722E-03  7.5095706E-04  4.0218764E-04  2.3845871E-04  1.1875285E-04  7.7865028E-05  5.3258354E-05  4.5144880E-05  0.0000000E+00
 chandeg          134   238.4305      2.1468815E-04  0.0000000E+00  0.1963754      9.2486948E-02  8.2897499E-02  7.6694205E-02  6.9751583E-02  5.9717312E-02  4.4604223E-02  2.7019415E-02  2.1721274E-02  1.6323006E-02  1.2248370E-02  9.1609955E-03  7.4906829E-03  5.7127406E-03  4.2152056E-03  3.6667958E-03  2.9331588E-03  2.3527693E-03  1.6214732E-03  1.3519367E-03  1.0194901E-03  7.4473018E-04  4.2391676E-04  2.1991135E-04  1.3563443E-04  7.8728248E-05  5.3719883E-05  4.5799992E-05  0.0000000E+00
 chandeg          169   13.33520      1.9936074E-04  0.0000000E+00  2.7381169E-02  2.2905290E-02  2.2677703E-02  2.2074321E-02  2.1385062E-02  2.0097300E-02  1.7882783E-02  1.4318483E-02  1.1824897E-02  9.0987934E-03  7.1443813E-03  5.5312458E-03  4.3359487E-03  3.4430013E-03  2.6919800E-03  2.0484715E-03  1.5398273E-03  1.1955079E-03  8.3506317E-04  6.1198394E-04  3.1514952E-04  2.2261079E-04  1.2007631E-04  6.9259775E-05  3.8158054E-05  2.9396320E-05  1.8535191E-05  1.0610753E-05  0.0000000E+00
 chandeg          240   64.16900      1.9304352E-04  0.0000000E+00  0.7752979      0.2353750      0.1955596      0.1454215      0.1371874      0.1300840      0.1226162      0.1085278      8.1900179E-02  7.1224995E-02  6.5000705E-02  5.8656961E-02  5.0465539E-02  2.7581403E-02  1.8666124E-02  1.3883236E-02  1.1105983E-02  8.1035560E-03  6.4394819E-03  3.8377007E-03  2.9595536E-03  2.3346439E-03  1.7630043E-03  1.1066059E-03  6.1106274E-04  4.3340775E-04  3.2982021E-04  2.7295080E-04  0.0000000E+00
 chandeg          272  9.9999997E-06  1.5133301E-04  0.0000000E+00  0.5195057      0.2281348      0.1672079      0.1233597      6.5714769E-02  5.6143668E-02  4.4586614E-02  3.6151417E-02  3.3685446E-02  3.1494651E-02  3.0406382E-02  2.9519996E-02  2.8500931E-02  2.7595650E-02  1.4706794E-02  8.0072051E-03  5.8944575E-03  4.6175434E-03  4.1274680E-03  3.1800980E-03  2.6594545E-03  2.2074382E-03  1.8040207E-03  1.4792213E-03  1.0505210E-03  9.2223624E-04  8.8321482E-04  8.4373896E-04  0.0000000E+00
 chandeg          290  9.9999997E-06  3.0180611E-04  0.0000000E+00  5.1651347E-02  2.2345522E-02  2.1052234E-02  1.9493628E-02  1.9043315E-02  1.8975459E-02  1.8881772E-02  8.4379427E-03  8.3705401E-03  8.3077215E-03  8.2278615E-03  8.1566507E-03  8.0878995E-03  8.0106091E-03  7.9201087E-03  7.8213010E-03  1.9616557E-08  3.6784678E-09  2.4944831E-11  2.3550400E-13  1.9313103E-15  5.1949867E-18  2.9318084E-21  5.5701832E-26  1.5933835E-32  3.2782904E-38  0.0000000E+00  0.0000000E+00  0.0000000E+00
 chandeg            2   3.313500      1.0457406E-04  0.0000000E+00  1.2832855E-02  2.9329709E-03  1.9706411E-03  1.2481018E-03  7.5746980E-04  5.8229989E-04  4.4921457E-04  3.4254501E-04  2.8896716E-04  2.5338988E-04  2.0764722E-04  1.7845088E-04  1.5949373E-04  1.4292180E-04  1.2644668E-04  1.1023760E-04  9.2645860E-05  7.9162426E-05  6.0668692E-05  4.8813399E-05  3.2161275E-05  2.5604242E-05  1.4875262E-05  8.3801078E-06  4.4502185E-06  3.0583915E-06  2.4506157E-06  1.9220795E-06  0.0000000E+00
 chandeg           74   28.04570      1.4179252E-04  0.0000000E+00  0.2615461      0.1012580      6.9825165E-02  4.4727527E-02  3.7249882E-02  3.5585724E-02  2.9119831E-02  2.1020230E-02  1.6415792E-02  1.3956283E-02  1.1961396E-02  1.0263238E-02  8.5576028E-03  7.1862419E-03  6.0910727E-03  5.0823567E-03  4.3599196E-03  3.7134418E-03  3.1437688E-03  2.4524191E-03  2.0329473E-03  1.6338197E-03  1.3146313E-03  9.2582934E-04  6.0434092E-04  4.4722322E-04  3.9747628E-04  3.7832680E-04  0.0000000E+00
 chandeg          110   40.89150      1.5133079E-04  0.0000000E+00  0.5192237      0.2278153      0.1669711      0.1232042      6.5557308E-02  5.6395993E-02  4.4528831E-02  3.6158349E-02  3.3685457E-02  3.1494614E-02  3.0396247E-02  2.9519998E-02  2.8504297E-02  2.7580200E-02  1.4732796E-02  8.1029125E-03  5.8853202E-03  4.6175439E-03  4.1304985E-03  3.1801218E-03  2.6594796E-03  2.2123796E-03  1.8040207E-03  1.4792213E-03  1.0505212E-03  9.2223566E-04  8.8478241E-04  8.4377720E-04  0.0000000E+00
 chandeg          141   4.871270      1.5463730E-04  0.0000000E+00  0.2244933      6.8885185E-02  4.1997384E-02  3.2278489E-02  2.8059170E-02  2.5954287E-02  2.1412045E-02  1.4318664E-02  1.2098452E-02  1.0521938E-02  9.2332857E-03  7.6681860E-03  6.3512097E-03  5.5855550E-03  4.5774747E-03  4.2277775E-03  3.8268636E-03  3.4377363E-03  2.8523277E-03  2.2803138E-03  1.7577854E-03  1.1831580E-03  8.1005361E-04  4.7279830E-04  2.7017109E-04  2.0571631E-04  1.7453788E-04  1.4882510E-04  0.0000000E+00
 chandeg          145   7.071100      2.0153761E-04  0.0000000E+00  4.9633455E-02  2.2606876E-02  2.0852691E-02  1.9306138E-02  1.7696857E-02  1.5945459E-02  1.1912210E-02  7.6594120E-03  5.7294532E-03  4.1958769E-03  3.3809359E-03  2.5744748E-03  1.9903041E-03  1.6883488E-03  1.3822052E-03  1.0696545E-03  8.0311968E-04  6.8693503E-04  5.4647727E-04  3.4886639E-04  2.8312503E-04  2.1506226E-04  1.3796432E-04  8.4528983E-05  4.8013771E-05  2.9488559E-05  2.3604785E-05  1.9361156E-05  0.0000000E+00
 chandeg          146   12.17290      1.8923782E-04  0.0000000E+00  9.3550228E-02  3.5148252E-02  3.0504264E-02  2.7513284E-02  2.5719514E-02  2.2898644E-02  1.7036928E-02  1.1118705E-02  8.5315481E-03  6.6684447E-03  5.3198505E-03  4.1794255E-03  3.2568304E-03  2.8592213E-03  2.4072027E-03  2.0434305E-03  1.4920197E-03  1.2496762E-03  9.8778307E-04  7.6686207E-04  6.3755811E-04  4.9746776E-04  3.0887465E-04  1.8923626E-04  9.4683732E-05  6.2242580E-05  4.6979618E-05  4.0874973E-05  0.0000000E+00
[...]
 chandeg          161   1019.897      1.7295928E-04  0.0000000E+00   2.315444      0.7273309      0.5580186      0.4120378      0.3572183      0.3270482      0.2735315      0.2187371      0.1916129      0.1593568      0.1275747      0.1165142      9.4710454E-02  7.6846816E-02  6.5956742E-02  5.2674562E-02  4.8292637E-02  4.1913357E-02  3.5975125E-02  2.8343070E-02  2.4858266E-02  2.2163557E-02  1.9433640E-02  1.6298432E-02  1.2485567E-02  1.0878498E-02  1.0260048E-02  9.8319873E-03  1.4525168E-15
 chandeg           41   256.4170      1.3487639E-04  0.0000000E+00   1.986783      0.7516227      0.6484157      0.4948982      0.4621592      0.4353821      0.3956718      0.3545330      0.3322213      0.3098693      0.2954893      0.2842721      0.2745619      0.2640934      0.2546396      0.2413834      0.2208120      0.2017190      0.1825309      0.1547965      0.1202887      0.1051523      9.1506854E-02  6.9549277E-02  6.3254319E-02  6.0102481E-02  5.7319611E-02  5.3496461E-02  0.0000000E+00
 chandeg           40   276.5014      1.3486785E-04  0.0000000E+00   2.019797      0.7612162      0.6630107      0.5068953      0.4646937      0.4379219      0.3985262      0.3553304      0.3327772      0.3102747      0.2963488      0.2852144      0.2751450      0.2651194      0.2565199      0.2418573      0.2220530      0.2030059      0.1825675      0.1549264      0.1203766      0.1052328      9.1798335E-02  6.9902442E-02  6.3278325E-02  6.0051635E-02  5.7269122E-02  5.3647649E-02  0.0000000E+00
 chandeg           43   300.4621      1.3442301E-04  0.0000000E+00   2.231548      0.7989381      0.7233453      0.5258979      0.4829298      0.4541437      0.4120289      0.3633524      0.3406690      0.3163032      0.3019988      0.2897569      0.2790345      0.2692374      0.2583362      0.2441712      0.2245653      0.2057819      0.1827694      0.1572584      0.1205958      0.1048020      9.2319034E-02  7.1238175E-02  6.3229762E-02  5.9757680E-02  5.7040598E-02  5.4594245E-02  0.0000000E+00
 chandeg          166   316.2465      1.3437678E-04  0.0000000E+00   2.231548      0.7989381      0.7233453      0.5258979      0.4829299      0.4541437      0.4120290      0.3633524      0.3406690      0.3163032      0.3019988      0.2897569      0.2790345      0.2692374      0.2583362      0.2441712      0.2245653      0.2057819      0.1827694      0.1572584      0.1205958      0.1048020      9.2319034E-02  7.1238175E-02  6.3229762E-02  5.9757672E-02  5.7040598E-02  5.4594252E-02  0.0000000E+00
 chandeg          165   317.3577      1.3604866E-04  0.0000000E+00   2.289896      0.8274613      0.7281119      0.5429084      0.5036637      0.4788196      0.4289728      0.3763618      0.3482346      0.3225975      0.3055169      0.2944987      0.2853348      0.2719395      0.2627006      0.2473278      0.2262531      0.2083645      0.1829468      0.1592632      0.1207705      0.1048513      9.2370659E-02  7.2134450E-02  6.3215882E-02  5.9669591E-02  5.7198152E-02  5.4555804E-02  0.0000000E+00
 chandeg           47   370.7064      1.3935908E-04  0.0000000E+00   2.779815      0.9203280      0.8340032      0.5910655      0.5400223      0.5160596      0.4631303      0.4004733      0.3647644      0.3331726      0.3163945      0.3043170      0.2923770      0.2782172      0.2679725      0.2520856      0.2346023      0.2158262      0.1864737      0.1669759      0.1272992      0.1103420      9.5970549E-02  7.5908296E-02  6.3451074E-02  6.0239401E-02  5.7990123E-02  5.5668391E-02  9.8158773E-16
 chandeg           59   392.9072      1.3960352E-04  0.0000000E+00   2.987223      0.9857211      0.8726966      0.6157455      0.5641131      0.5351202      0.4830622      0.4148521      0.3774804      0.3455356      0.3274291      0.3142993      0.3002318      0.2869766      0.2753431      0.2562420      0.2379573      0.2162613      0.1874081      0.1680088      0.1274105      0.1117361      9.6416041E-02  7.6735757E-02  6.3525349E-02  6.0573045E-02  5.8095951E-02  5.6421895E-02  6.0839867E-16
 chandeg           67   393.5116      1.3949489E-04  0.0000000E+00   1.489884      0.4914680      0.4337694      0.3097052      0.2822646      0.2674354      0.2417922      0.2072620      0.1883788      0.1728117      0.1635148      0.1571908      0.1501979      0.1435260      0.1376721      0.1281985      0.1190185      0.1081306      9.3704037E-02  8.4042892E-02  6.3628785E-02  5.5905811E-02  4.8170589E-02  3.8442276E-02  3.1761762E-02  3.0285645E-02  2.9013064E-02  2.8212829E-02  0.0000000E+00
 chandeg           56   393.6698      1.3948424E-04  0.0000000E+00   1.493612      0.4928600      0.4346351      0.3078694      0.2820558      0.2674130      0.2418262      0.2072453      0.1883222      0.1728077      0.1634706      0.1572214      0.1502234      0.1435553      0.1376721      0.1282011      0.1190134      0.1081312      9.3704037E-02  8.4004983E-02  6.3639179E-02  5.5868741E-02  4.8175804E-02  3.8463112E-02  3.1761814E-02  3.0254232E-02  2.9019091E-02  2.8182130E-02  0.0000000E+00
 chandeg           57   394.2544      1.3946957E-04  0.0000000E+00   3.000162      0.9885100      0.8693806      0.6182085      0.5647797      0.5352163      0.4840667      0.4147997      0.3770208      0.3458706      0.3269219      0.3144827      0.3006189      0.2870823      0.2754295      0.2566971      0.2382346      0.2163721      0.1874984      0.1680655      0.1270096      0.1117853      9.6266732E-02  7.7243395E-02  6.3517705E-02  6.0456306E-02  5.7969958E-02  5.6332521E-02  1.3601063E-16
 chandeg           58   434.9954      1.3801428E-04  0.0000000E+00   3.551115       1.110771      0.9720347      0.6929300      0.6196454      0.5906603      0.5390009      0.4512244      0.4055107      0.3684919      0.3526279      0.3313054      0.3108190      0.2966400      0.2812701      0.2684989      0.2419132      0.2244233      0.1946423      0.1726342      0.1349931      0.1184455      9.9811025E-02  8.2526505E-02  6.5949604E-02  6.3303731E-02  6.0666114E-02  5.7976291E-02  1.2314191E-15
 chandeg           52   446.8304      1.3804133E-04  0.0000000E+00   3.650315       1.139686      0.9763615      0.7054515      0.6286721      0.5978923      0.5457439      0.4562103      0.4093637      0.3724251      0.3558700      0.3338671      0.3136849      0.2986597      0.2817989      0.2695230      0.2426113      0.2249824      0.1961932      0.1731482      0.1350783      0.1183058      0.1000447      8.2667127E-02  6.6022925E-02  6.3219026E-02  6.1030313E-02  5.8169961E-02  8.9449940E-16
 chandeg           51   450.9756      1.3803456E-04  0.0000000E+00   3.650445       1.139699      0.9745401      0.7054521      0.6286727      0.5978928      0.5457454      0.4562109      0.4093641      0.3724251      0.3558700      0.3338676      0.3136852      0.2986603      0.2817989      0.2693418      0.2427213      0.2249867      0.1961932      0.1731437      0.1350925      0.1182172      0.1002313      8.2698934E-02  6.5930970E-02  6.3127048E-02  6.1046805E-02  5.8296327E-02  0.0000000E+00
 chandeg           50   490.8128      1.3777406E-04  0.0000000E+00   4.240263       1.341522       1.092371      0.7595444      0.6855137      0.6260102      0.5696631      0.4750162      0.4266590      0.3884834      0.3699537      0.3448299      0.3210621      0.3053720      0.2888255      0.2769829      0.2472440      0.2282352      0.1976096      0.1782521      0.1448428      0.1231315      0.1022896      8.5427217E-02  6.7469582E-02  6.4970098E-02  6.2212400E-02  5.9656207E-02  1.9911822E-15
 chandeg           48   543.6728      1.3717885E-04  0.0000000E+00   4.597160       1.445820       1.193136      0.8202875      0.7270896      0.6618847      0.6011106      0.5000697      0.4509231      0.4077291      0.3847470      0.3573406      0.3281862      0.3137429      0.2962756      0.2839361      0.2494736      0.2332971      0.2018827      0.1833231      0.1505187      0.1299494      0.1126053      8.8238135E-02  6.9203764E-02  6.6366054E-02  6.4972728E-02  6.3218556E-02  3.0407403E-16
 chandeg          259  9.9999997E-06  1.3845792E-04  0.0000000E+00   4.605499       1.454187       1.201218      0.8202875      0.7270895      0.6618847      0.6094534      0.5026106      0.4548870      0.4105106      0.3904980      0.3614733      0.3307500      0.3149002      0.2985217      0.2849831      0.2494736      0.2332971      0.2018827      0.1833231      0.1505187      0.1299494      0.1126053      8.8238142E-02  6.9203764E-02  6.6366062E-02  6.4972728E-02  6.3218556E-02  0.0000000E+00
 chandeg          258   547.1201      1.3842696E-04  0.0000000E+00   4.624113       1.461078       1.206164      0.8267014      0.7290400      0.6632117      0.6109788      0.5009917      0.4556944      0.4113203      0.3910972      0.3620571      0.3313863      0.3152362      0.2988395      0.2855811      0.2497686      0.2334666      0.2029137      0.1833329      0.1518026      0.1300027      0.1128460      8.8434696E-02  6.9180273E-02  6.6243142E-02  6.5170839E-02  6.3144185E-02  3.5159459E-16
 chandeg           49   557.2439      1.3835634E-04  0.0000000E+00   4.741245       1.500812       1.231229      0.8401582      0.7460603      0.6688675      0.6182806      0.5050814      0.4578601      0.4144393      0.3931411      0.3645000      0.3325977      0.3167366      0.2985081      0.2862596      0.2503596      0.2341046      0.2039821      0.1834772      0.1523132      0.1301016      0.1131096      8.8572368E-02  6.9107696E-02  6.6247977E-02  6.5297283E-02  6.3250855E-02  2.4035666E-16
 chandeg           55   845.6148      1.3732587E-04  0.0000000E+00   6.107805       1.912780       1.523136       1.038182      0.8863125      0.7826524      0.7163917      0.5934666      0.5332252      0.4826614      0.4540238      0.4136233      0.3821466      0.3603206      0.3383040      0.3249376      0.2868761      0.2530845      0.2190823      0.2030912      0.1756555      0.1470597      0.1286317      0.1050877      8.1852786E-02  7.7651411E-02  7.6864697E-02  7.5313628E-02  1.2575956E-15
 chandeg          257   856.5605      1.3755953E-04  0.0000000E+00   6.109652       1.914949       1.522437       1.037546      0.8882889      0.7829450      0.7183183      0.5953181      0.5343885      0.4827358      0.4551754      0.4136595      0.3840820      0.3603751      0.3383508      0.3249557      0.2868761      0.2531021      0.2190998      0.2031086      0.1756378      0.1471268      0.1286318      0.1051043      8.1869476E-02  7.7651411E-02  7.6864578E-02  7.5297117E-02  0.0000000E+00
 chandeg          256   873.4709      1.3696232E-04  0.0000000E+00   6.210269       1.953386       1.572364       1.061481      0.9018809      0.7953822      0.7303032      0.6018664      0.5453091      0.4872579      0.4582204      0.4187697      0.3858399      0.3625473      0.3409252      0.3289083      0.2874059      0.2567138      0.2238044      0.2046883      0.1841670      0.1507868      0.1316406      0.1078197      8.4036902E-02  7.8479975E-02  7.7825591E-02  7.7043325E-02  0.0000000E+00
 chandeg           54   1006.897      1.4823356E-04  0.0000000E+00   7.494103       2.410573       1.809694       1.352849       1.194091       1.074868      0.9584494      0.7911710      0.6929148      0.6257755      0.5764863      0.5257520      0.4683515      0.4343714      0.3983530      0.3728208      0.3207466      0.2750356      0.2481606      0.2240048      0.2040697      0.1729923      0.1464759      0.1242425      9.4475783E-02  8.5240334E-02  8.3562501E-02  8.2527228E-02  1.5368421E-15
 chandeg           53   1020.361      1.5354158E-04  0.0000000E+00   9.854757       3.185208       2.381467       1.782093       1.552219       1.436201       1.246966       1.020907      0.8911387      0.7903215      0.7148566      0.6437244      0.5581471      0.5180221      0.4570128      0.4261889      0.3615353      0.3092797      0.2790645      0.2508479      0.2230852      0.1974384      0.1706959      0.1426464      0.1131998      0.1039738      9.9718854E-02  9.5349178E-02  3.4042278E-16
 chandeg           60   1283.432      1.5559721E-04  0.0000000E+00   10.34177       3.392715       2.516605       1.964143       1.676090       1.554929       1.341301       1.086084      0.9377487      0.8133283      0.7312942      0.6591804      0.5817557      0.5378361      0.4634877      0.4366028      0.3706686      0.3169535      0.2830695      0.2570782      0.2314175      0.2013203      0.1744773      0.1451644      0.1201775      0.1078223      0.1010600      9.8274365E-02  2.1192743E-04
 chandeg           37   1322.307      1.5590446E-04  0.0000000E+00   10.76295       3.515533       2.650429       2.047266       1.732737       1.610806       1.387060       1.116157      0.9603081      0.8350242      0.7440716      0.6716765      0.5974081      0.5507485      0.4718779      0.4433886      0.3744736      0.3227319      0.2851840      0.2583358      0.2348610      0.2021349      0.1760850      0.1457656      0.1207836      0.1088365      0.1028815      9.9594422E-02  1.5072850E-05
 chandeg           36   1421.146      1.5700578E-04  0.0000000E+00   11.20570       3.687680       2.842562       2.175626       1.837337       1.692116       1.447541       1.159159      0.9897435      0.8698778      0.7732611      0.6870443      0.6191605      0.5791166      0.4892845      0.4550329      0.3827696      0.3264096      0.2901106      0.2598545      0.2354057      0.2049400      0.1771121      0.1460632      0.1221114      0.1099235      0.1035753      0.1012164      2.3498967E-07
 chandeg           34   1525.674      1.5654103E-04  0.0000000E+00   12.30121       4.069496       3.174987       2.388265       1.966551       1.822610       1.539326       1.217272       1.036089      0.8912643      0.7914569      0.7157764      0.6405494      0.5953467      0.5004714      0.4667132      0.3893879      0.3350632      0.3030174      0.2735825      0.2444775      0.2106480      0.1834862      0.1515407      0.1301083      0.1185150      0.1135575      0.1100813      3.6560991E-04
 chandeg           33   1612.560      1.5674693E-04  0.0000000E+00   12.80658       4.197974       3.231076       2.460232       2.013842       1.871019       1.575213       1.239073       1.054647      0.9126204      0.8015174      0.7226281      0.6470857      0.6057939      0.5023502      0.4715055      0.3928537      0.3384946      0.3053674      0.2804144      0.2477154      0.2148958      0.1840225      0.1521223      0.1318117      0.1187493      0.1149137      0.1105571      1.7158304E-04
 chandeg           32   1951.008      1.5701923E-04  0.0000000E+00   12.93365       4.263130       3.269860       2.490785       2.033030       1.889199       1.585106       1.246076       1.062051      0.9148811      0.8037540      0.7241925      0.6491317      0.6082204      0.5026084      0.4717203      0.3937338      0.3398015      0.3074917      0.2809757      0.2489026      0.2148500      0.1841713      0.1529354      0.1322712      0.1193421      0.1140995      0.1112135      2.2654745E-05
 chandeg           31   1988.718      1.5552413E-04  0.0000000E+00   13.84054       4.587950       3.567142       2.560792       2.129384       1.923823       1.603979       1.258754       1.091964      0.9217725      0.8358400      0.7304041      0.6561255      0.6146686      0.5107276      0.4775552      0.4012004      0.3446162      0.3107269      0.2839602      0.2515830      0.2159690      0.1872035      0.1535649      0.1326818      0.1228972      0.1172980      0.1132457      3.6963391E-07
 chandeg           35   2005.282      1.5579241E-04  0.0000000E+00   14.05903       4.663270       3.591344       2.580551       2.142190       1.937138       1.616987       1.271246       1.095641      0.9329129      0.8373014      0.7435530      0.6682201      0.6259785      0.5172060      0.4859237      0.4017504      0.3453171      0.3107741      0.2841564      0.2516673      0.2158765      0.1877052      0.1538094      0.1326898      0.1225798      0.1173070      0.1132748      7.7380746E-10
 chandeg           38   2021.149      1.5418883E-04  0.0000000E+00   14.37225       4.820144       3.849792       2.607315       2.145374       1.948468       1.621141       1.274262       1.105715      0.9386390      0.8555779      0.7451806      0.6750815      0.6270978      0.5307822      0.4929738      0.4181339      0.3524342      0.3167367      0.2856040      0.2547197      0.2209285      0.1975269      0.1582457      0.1362637      0.1281676      0.1222131      0.1145733      2.2015725E-12
 chandeg           39   2046.326      1.5239483E-04  0.0000000E+00   14.78971       5.029048       4.124481       2.645442       2.147469       1.967138       1.657537       1.307105       1.106836      0.9404834      0.8613288      0.7540227      0.6759099      0.6298349      0.5323980      0.4935891      0.4280226      0.3546865      0.3173584      0.2909314      0.2573754      0.2263381      0.2000735      0.1590304      0.1389304      0.1301337      0.1247793      0.1169671      4.4884498E-13
 chandeg           27   2160.756      1.5211174E-04  0.0000000E+00   15.78889       5.503099       4.523433       2.854954       2.300839       2.115752       1.761531       1.403990       1.139320      0.9853851      0.8952205      0.7958086      0.7072367      0.6622279      0.5562626      0.5158499      0.4410816      0.3633119      0.3257238      0.2968810      0.2634041      0.2281198      0.2031895      0.1624861      0.1414576      0.1331412      0.1277262      0.1203607      7.1401516E-13
 chandeg           30   2228.336      1.5345712E-04  0.0000000E+00   16.23305       5.680781       4.658035       3.006821       2.446235       2.244251       1.843014       1.475882       1.185954       1.023237      0.9264514      0.8171948      0.7401063      0.6912297      0.5792487      0.5370077      0.4518959      0.3696227      0.3347214      0.3020270      0.2660696      0.2309290      0.2055091      0.1626519      0.1434983      0.1360548      0.1296814      0.1215050      4.1579641E-13
 chandeg           29   2378.026      1.5391127E-04  0.0000000E+00   17.07210       6.133030       5.069320       3.132741       2.493961       2.298759       1.886229       1.502695       1.200766       1.042395      0.9499428      0.8311788      0.7537761      0.7010108      0.5899525      0.5453197      0.4601197      0.3774773      0.3384431      0.3060129      0.2688914      0.2323927      0.2067835      0.1654734      0.1443443      0.1364472      0.1307408      0.1218521      6.0072753E-13
 chandeg           28   2378.835      1.5391833E-04  0.0000000E+00   17.61828       6.360885       5.268554       3.252340       2.553588       2.354285       1.924829       1.546115       1.242038       1.083416      0.9830466      0.8712649      0.7920186      0.7390727      0.6217940      0.5746309      0.4726180      0.3848719      0.3418068      0.3111380      0.2710976      0.2347806      0.2096924      0.1675583      0.1468717      0.1373872      0.1318353      0.1230224      0.0000000E+00
 chandeg          288   19.85580      1.5409288E-04  0.0000000E+00   17.63872       6.380465       5.288298       3.252384       2.572427       2.374067       1.945181       1.566251       1.261492       1.103517       1.003432      0.8916180      0.8120986      0.7590629      0.6417310      0.5934016      0.4928610      0.3848729      0.3569744      0.3111390      0.2711000      0.2347811      0.2096931      0.1675589      0.1468718      0.1373875      0.1318356      0.1230226      0.0000000E+00
