                   SWAT+               
             Revision 61.0            
      Soil & Water Assessment Tool    
               PC Version             
    Program reading . . . executing


  Date of Sim  10/29/2024 Time  21:15:16
 reading from precipitation file         Time  21:15:16
 reading from temperature file           Time  21:15:16
 reading from solar radiation file       Time  21:15:17
 reading from relative humidity file     Time  21:15:17
 reading from wind file                  Time  21:15:17
 reading from wgn file                   Time  21:15:17
 reading from wx station file            Time  21:15:17
  Original Simulation        1   1  1988 Yr    1 of   33 Time  21:15:25
  Original Simulation        1   2  1988 Yr    1 of   33 Time  21:15:25
  Original Simulation        1   3  1988 Yr    1 of   33 Time  21:15:25
  Original Simulation        1   4  1988 Yr    1 of   33 Time  21:15:26
  Original Simulation        1   5  1988 Yr    1 of   33 Time  21:15:26
  Original Simulation        1   6  1988 Yr    1 of   33 Time  21:15:26
  Original Simulation        1   7  1988 Yr    1 of   33 Time  21:15:26
  Original Simulation        1   8  1988 Yr    1 of   33 Time  21:15:26
  Original Simulation        1   9  1988 Yr    1 of   33 Time  21:15:27
  Original Simulation        1  10  1988 Yr    1 of   33 Time  21:15:27
  Original Simulation        1  11  1988 Yr    1 of   33 Time  21:15:27
  Original Simulation        1  12  1988 Yr    1 of   33 Time  21:15:27
  Original Simulation        1  13  1988 Yr    1 of   33 Time  21:15:27
  Original Simulation        1  14  1988 Yr    1 of   33 Time  21:15:28
  Original Simulation        1  15  1988 Yr    1 of   33 Time  21:15:28
  Original Simulation        1  16  1988 Yr    1 of   33 Time  21:15:28
  Original Simulation        1  17  1988 Yr    1 of   33 Time  21:15:28
  Original Simulation        1  18  1988 Yr    1 of   33 Time  21:15:28
  Original Simulation        1  19  1988 Yr    1 of   33 Time  21:15:28
  Original Simulation        1  20  1988 Yr    1 of   33 Time  21:15:29
  Original Simulation        1  21  1988 Yr    1 of   33 Time  21:15:29
  Original Simulation        1  22  1988 Yr    1 of   33 Time  21:15:29
  Original Simulation        1  23  1988 Yr    1 of   33 Time  21:15:29
  Original Simulation        1  24  1988 Yr    1 of   33 Time  21:15:29
  Original Simulation        1  25  1988 Yr    1 of   33 Time  21:15:30
  Original Simulation        1  26  1988 Yr    1 of   33 Time  21:15:30
  Original Simulation        1  27  1988 Yr    1 of   33 Time  21:15:30
  Original Simulation        1  28  1988 Yr    1 of   33 Time  21:15:30
  Original Simulation        1  29  1988 Yr    1 of   33 Time  21:15:30
  Original Simulation        1  30  1988 Yr    1 of   33 Time  21:15:31
  Original Simulation        1  31  1988 Yr    1 of   33 Time  21:15:31
  Original Simulation        2   1  1988 Yr    1 of   33 Time  21:15:31
  Original Simulation        2   2  1988 Yr    1 of   33 Time  21:15:31
  Original Simulation        2   3  1988 Yr    1 of   33 Time  21:15:31
  Original Simulation        2   4  1988 Yr    1 of   33 Time  21:15:32
  Original Simulation        2   5  1988 Yr    1 of   33 Time  21:15:32
  Original Simulation        2   6  1988 Yr    1 of   33 Time  21:15:32
  Original Simulation        2   7  1988 Yr    1 of   33 Time  21:15:32
  Original Simulation        2   8  1988 Yr    1 of   33 Time  21:15:32
  Original Simulation        2   9  1988 Yr    1 of   33 Time  21:15:33
  Original Simulation        2  10  1988 Yr    1 of   33 Time  21:15:33
  Original Simulation        2  11  1988 Yr    1 of   33 Time  21:15:33
  Original Simulation        2  12  1988 Yr    1 of   33 Time  21:15:33
  Original Simulation        2  13  1988 Yr    1 of   33 Time  21:15:33
  Original Simulation        2  14  1988 Yr    1 of   33 Time  21:15:34
  Original Simulation        2  15  1988 Yr    1 of   33 Time  21:15:34
  Original Simulation        2  16  1988 Yr    1 of   33 Time  21:15:34
  Original Simulation        2  17  1988 Yr    1 of   33 Time  21:15:34
  Original Simulation        2  18  1988 Yr    1 of   33 Time  21:15:34
  Original Simulation        2  19  1988 Yr    1 of   33 Time  21:15:35
  Original Simulation        2  20  1988 Yr    1 of   33 Time  21:15:35
  Original Simulation        2  21  1988 Yr    1 of   33 Time  21:15:35
  Original Simulation        2  22  1988 Yr    1 of   33 Time  21:15:35
  Original Simulation        2  23  1988 Yr    1 of   33 Time  21:15:35
  Original Simulation        2  24  1988 Yr    1 of   33 Time  21:15:36
  Original Simulation        2  25  1988 Yr    1 of   33 Time  21:15:36
  Original Simulation        2  26  1988 Yr    1 of   33 Time  21:15:36
  Original Simulation        2  27  1988 Yr    1 of   33 Time  21:15:36
  Original Simulation        2  28  1988 Yr    1 of   33 Time  21:15:36
  Original Simulation        2  29  1988 Yr    1 of   33 Time  21:15:37
  Original Simulation        3   1  1988 Yr    1 of   33 Time  21:15:37
  Original Simulation        3   2  1988 Yr    1 of   33 Time  21:15:37
  Original Simulation        3   3  1988 Yr    1 of   33 Time  21:15:37
  Original Simulation        3   4  1988 Yr    1 of   33 Time  21:15:37
  Original Simulation        3   5  1988 Yr    1 of   33 Time  21:15:38
  Original Simulation        3   6  1988 Yr    1 of   33 Time  21:15:38
  Original Simulation        3   7  1988 Yr    1 of   33 Time  21:15:38
  Original Simulation        3   8  1988 Yr    1 of   33 Time  21:15:38
  Original Simulation        3   9  1988 Yr    1 of   33 Time  21:15:38
  Original Simulation        3  10  1988 Yr    1 of   33 Time  21:15:39
  Original Simulation        3  11  1988 Yr    1 of   33 Time  21:15:39
  Original Simulation        3  12  1988 Yr    1 of   33 Time  21:15:39
  Original Simulation        3  13  1988 Yr    1 of   33 Time  21:15:39
  Original Simulation        3  14  1988 Yr    1 of   33 Time  21:15:40
  Original Simulation        3  15  1988 Yr    1 of   33 Time  21:15:40
  Original Simulation        3  16  1988 Yr    1 of   33 Time  21:15:40
  Original Simulation        3  17  1988 Yr    1 of   33 Time  21:15:40
  Original Simulation        3  18  1988 Yr    1 of   33 Time  21:15:40
  Original Simulation        3  19  1988 Yr    1 of   33 Time  21:15:41
  Original Simulation        3  20  1988 Yr    1 of   33 Time  21:15:41
  Original Simulation        3  21  1988 Yr    1 of   33 Time  21:15:41
  Original Simulation        3  22  1988 Yr    1 of   33 Time  21:15:41
  Original Simulation        3  23  1988 Yr    1 of   33 Time  21:15:41
  Original Simulation        3  24  1988 Yr    1 of   33 Time  21:15:42
  Original Simulation        3  25  1988 Yr    1 of   33 Time  21:15:42
  Original Simulation        3  26  1988 Yr    1 of   33 Time  21:15:42
  Original Simulation        3  27  1988 Yr    1 of   33 Time  21:15:42
  Original Simulation        3  28  1988 Yr    1 of   33 Time  21:15:42
  Original Simulation        3  29  1988 Yr    1 of   33 Time  21:15:43
  Original Simulation        3  30  1988 Yr    1 of   33 Time  21:15:43
  Original Simulation        3  31  1988 Yr    1 of   33 Time  21:15:43
  Original Simulation        4   1  1988 Yr    1 of   33 Time  21:15:43
  Original Simulation        4   2  1988 Yr    1 of   33 Time  21:15:43
  Original Simulation        4   3  1988 Yr    1 of   33 Time  21:15:44
  Original Simulation        4   4  1988 Yr    1 of   33 Time  21:15:44
  Original Simulation        4   5  1988 Yr    1 of   33 Time  21:15:44
  Original Simulation        4   6  1988 Yr    1 of   33 Time  21:15:44
  Original Simulation        4   7  1988 Yr    1 of   33 Time  21:15:45
  Original Simulation        4   8  1988 Yr    1 of   33 Time  21:15:45
  Original Simulation        4   9  1988 Yr    1 of   33 Time  21:15:45
  Original Simulation        4  10  1988 Yr    1 of   33 Time  21:15:45
  Original Simulation        4  11  1988 Yr    1 of   33 Time  21:15:45
  Original Simulation        4  12  1988 Yr    1 of   33 Time  21:15:46
  Original Simulation        4  13  1988 Yr    1 of   33 Time  21:15:46
  Original Simulation        4  14  1988 Yr    1 of   33 Time  21:15:46
  Original Simulation        4  15  1988 Yr    1 of   33 Time  21:15:46
  Original Simulation        4  16  1988 Yr    1 of   33 Time  21:15:46
  Original Simulation        4  17  1988 Yr    1 of   33 Time  21:15:47
  Original Simulation        4  18  1988 Yr    1 of   33 Time  21:15:47
  Original Simulation        4  19  1988 Yr    1 of   33 Time  21:15:47
  Original Simulation        4  20  1988 Yr    1 of   33 Time  21:15:47
  Original Simulation        4  21  1988 Yr    1 of   33 Time  21:15:47
  Original Simulation        4  22  1988 Yr    1 of   33 Time  21:15:48
  Original Simulation        4  23  1988 Yr    1 of   33 Time  21:15:48
  Original Simulation        4  24  1988 Yr    1 of   33 Time  21:15:48
  Original Simulation        4  25  1988 Yr    1 of   33 Time  21:15:48
  Original Simulation        4  26  1988 Yr    1 of   33 Time  21:15:48
  Original Simulation        4  27  1988 Yr    1 of   33 Time  21:15:49
  Original Simulation        4  28  1988 Yr    1 of   33 Time  21:15:49
  Original Simulation        4  29  1988 Yr    1 of   33 Time  21:15:49
  Original Simulation        4  30  1988 Yr    1 of   33 Time  21:15:49
  Original Simulation        5   1  1988 Yr    1 of   33 Time  21:15:49
  Original Simulation        5   2  1988 Yr    1 of   33 Time  21:15:50
  Original Simulation        5   3  1988 Yr    1 of   33 Time  21:15:50
  Original Simulation        5   4  1988 Yr    1 of   33 Time  21:15:50
  Original Simulation        5   5  1988 Yr    1 of   33 Time  21:15:50
  Original Simulation        5   6  1988 Yr    1 of   33 Time  21:15:50
  Original Simulation        5   7  1988 Yr    1 of   33 Time  21:15:51
  Original Simulation        5   8  1988 Yr    1 of   33 Time  21:15:51
  Original Simulation        5   9  1988 Yr    1 of   33 Time  21:15:51
  Original Simulation        5  10  1988 Yr    1 of   33 Time  21:15:51
  Original Simulation        5  11  1988 Yr    1 of   33 Time  21:15:51
  Original Simulation        5  12  1988 Yr    1 of   33 Time  21:15:52
  Original Simulation        5  13  1988 Yr    1 of   33 Time  21:15:52
  Original Simulation        5  14  1988 Yr    1 of   33 Time  21:15:52
  Original Simulation        5  15  1988 Yr    1 of   33 Time  21:15:52
  Original Simulation        5  16  1988 Yr    1 of   33 Time  21:15:52
  Original Simulation        5  17  1988 Yr    1 of   33 Time  21:15:53
  Original Simulation        5  18  1988 Yr    1 of   33 Time  21:15:53
  Original Simulation        5  19  1988 Yr    1 of   33 Time  21:15:53
  Original Simulation        5  20  1988 Yr    1 of   33 Time  21:15:53
  Original Simulation        5  21  1988 Yr    1 of   33 Time  21:15:53
  Original Simulation        5  22  1988 Yr    1 of   33 Time  21:15:54
  Original Simulation        5  23  1988 Yr    1 of   33 Time  21:15:54
  Original Simulation        5  24  1988 Yr    1 of   33 Time  21:15:54
  Original Simulation        5  25  1988 Yr    1 of   33 Time  21:15:54
  Original Simulation        5  26  1988 Yr    1 of   33 Time  21:15:54
  Original Simulation        5  27  1988 Yr    1 of   33 Time  21:15:55
  Original Simulation        5  28  1988 Yr    1 of   33 Time  21:15:55
  Original Simulation        5  29  1988 Yr    1 of   33 Time  21:15:55
  Original Simulation        5  30  1988 Yr    1 of   33 Time  21:15:55
  Original Simulation        5  31  1988 Yr    1 of   33 Time  21:15:55
  Original Simulation        6   1  1988 Yr    1 of   33 Time  21:15:56
  Original Simulation        6   2  1988 Yr    1 of   33 Time  21:15:56
  Original Simulation        6   3  1988 Yr    1 of   33 Time  21:15:56
  Original Simulation        6   4  1988 Yr    1 of   33 Time  21:15:56
  Original Simulation        6   5  1988 Yr    1 of   33 Time  21:15:56
  Original Simulation        6   6  1988 Yr    1 of   33 Time  21:15:57
  Original Simulation        6   7  1988 Yr    1 of   33 Time  21:15:57
  Original Simulation        6   8  1988 Yr    1 of   33 Time  21:15:57
  Original Simulation        6   9  1988 Yr    1 of   33 Time  21:15:57
  Original Simulation        6  10  1988 Yr    1 of   33 Time  21:15:57
  Original Simulation        6  11  1988 Yr    1 of   33 Time  21:15:58
  Original Simulation        6  12  1988 Yr    1 of   33 Time  21:15:58
  Original Simulation        6  13  1988 Yr    1 of   33 Time  21:15:58
  Original Simulation        6  14  1988 Yr    1 of   33 Time  21:15:58
  Original Simulation        6  15  1988 Yr    1 of   33 Time  21:15:58
  Original Simulation        6  16  1988 Yr    1 of   33 Time  21:15:59
  Original Simulation        6  17  1988 Yr    1 of   33 Time  21:15:59
  Original Simulation        6  18  1988 Yr    1 of   33 Time  21:15:59
  Original Simulation        6  19  1988 Yr    1 of   33 Time  21:15:59
  Original Simulation        6  20  1988 Yr    1 of   33 Time  21:15:59
  Original Simulation        6  21  1988 Yr    1 of   33 Time  21:16: 0
  Original Simulation        6  22  1988 Yr    1 of   33 Time  21:16: 0
  Original Simulation        6  23  1988 Yr    1 of   33 Time  21:16: 0
  Original Simulation        6  24  1988 Yr    1 of   33 Time  21:16: 0
  Original Simulation        6  25  1988 Yr    1 of   33 Time  21:16: 1
  Original Simulation        6  26  1988 Yr    1 of   33 Time  21:16: 1
  Original Simulation        6  27  1988 Yr    1 of   33 Time  21:16: 1
  Original Simulation        6  28  1988 Yr    1 of   33 Time  21:16: 1
  Original Simulation        6  29  1988 Yr    1 of   33 Time  21:16: 1
  Original Simulation        6  30  1988 Yr    1 of   33 Time  21:16: 2
  Original Simulation        7   1  1988 Yr    1 of   33 Time  21:16: 2
  Original Simulation        7   2  1988 Yr    1 of   33 Time  21:16: 2
  Original Simulation        7   3  1988 Yr    1 of   33 Time  21:16: 2
  Original Simulation        7   4  1988 Yr    1 of   33 Time  21:16: 2
  Original Simulation        7   5  1988 Yr    1 of   33 Time  21:16: 3
  Original Simulation        7   6  1988 Yr    1 of   33 Time  21:16: 3
  Original Simulation        7   7  1988 Yr    1 of   33 Time  21:16: 3
  Original Simulation        7   8  1988 Yr    1 of   33 Time  21:16: 3
  Original Simulation        7   9  1988 Yr    1 of   33 Time  21:16: 3
  Original Simulation        7  10  1988 Yr    1 of   33 Time  21:16: 4
  Original Simulation        7  11  1988 Yr    1 of   33 Time  21:16: 4
  Original Simulation        7  12  1988 Yr    1 of   33 Time  21:16: 4
  Original Simulation        7  13  1988 Yr    1 of   33 Time  21:16: 4
  Original Simulation        7  14  1988 Yr    1 of   33 Time  21:16: 4
  Original Simulation        7  15  1988 Yr    1 of   33 Time  21:16: 5
  Original Simulation        7  16  1988 Yr    1 of   33 Time  21:16: 5
  Original Simulation        7  17  1988 Yr    1 of   33 Time  21:16: 5
  Original Simulation        7  18  1988 Yr    1 of   33 Time  21:16: 5
  Original Simulation        7  19  1988 Yr    1 of   33 Time  21:16: 5
  Original Simulation        7  20  1988 Yr    1 of   33 Time  21:16: 6
  Original Simulation        7  21  1988 Yr    1 of   33 Time  21:16: 6
  Original Simulation        7  22  1988 Yr    1 of   33 Time  21:16: 6
  Original Simulation        7  23  1988 Yr    1 of   33 Time  21:16: 6
  Original Simulation        7  24  1988 Yr    1 of   33 Time  21:16: 6
  Original Simulation        7  25  1988 Yr    1 of   33 Time  21:16: 7
  Original Simulation        7  26  1988 Yr    1 of   33 Time  21:16: 7
  Original Simulation        7  27  1988 Yr    1 of   33 Time  21:16: 7
  Original Simulation        7  28  1988 Yr    1 of   33 Time  21:16: 7
  Original Simulation        7  29  1988 Yr    1 of   33 Time  21:16: 7
  Original Simulation        7  30  1988 Yr    1 of   33 Time  21:16: 8
  Original Simulation        7  31  1988 Yr    1 of   33 Time  21:16: 8
  Original Simulation        8   1  1988 Yr    1 of   33 Time  21:16: 8
  Original Simulation        8   2  1988 Yr    1 of   33 Time  21:16: 8
  Original Simulation        8   3  1988 Yr    1 of   33 Time  21:16: 8
  Original Simulation        8   4  1988 Yr    1 of   33 Time  21:16: 9
  Original Simulation        8   5  1988 Yr    1 of   33 Time  21:16: 9
  Original Simulation        8   6  1988 Yr    1 of   33 Time  21:16: 9
  Original Simulation        8   7  1988 Yr    1 of   33 Time  21:16: 9
  Original Simulation        8   8  1988 Yr    1 of   33 Time  21:16: 9
  Original Simulation        8   9  1988 Yr    1 of   33 Time  21:16:10
  Original Simulation        8  10  1988 Yr    1 of   33 Time  21:16:10
  Original Simulation        8  11  1988 Yr    1 of   33 Time  21:16:10
  Original Simulation        8  12  1988 Yr    1 of   33 Time  21:16:10
  Original Simulation        8  13  1988 Yr    1 of   33 Time  21:16:11
  Original Simulation        8  14  1988 Yr    1 of   33 Time  21:16:11
  Original Simulation        8  15  1988 Yr    1 of   33 Time  21:16:11
  Original Simulation        8  16  1988 Yr    1 of   33 Time  21:16:11
  Original Simulation        8  17  1988 Yr    1 of   33 Time  21:16:11
  Original Simulation        8  18  1988 Yr    1 of   33 Time  21:16:12
  Original Simulation        8  19  1988 Yr    1 of   33 Time  21:16:12
  Original Simulation        8  20  1988 Yr    1 of   33 Time  21:16:12
  Original Simulation        8  21  1988 Yr    1 of   33 Time  21:16:12
  Original Simulation        8  22  1988 Yr    1 of   33 Time  21:16:12
  Original Simulation        8  23  1988 Yr    1 of   33 Time  21:16:13
  Original Simulation        8  24  1988 Yr    1 of   33 Time  21:16:13
  Original Simulation        8  25  1988 Yr    1 of   33 Time  21:16:13
  Original Simulation        8  26  1988 Yr    1 of   33 Time  21:16:13
  Original Simulation        8  27  1988 Yr    1 of   33 Time  21:16:13
  Original Simulation        8  28  1988 Yr    1 of   33 Time  21:16:14
  Original Simulation        8  29  1988 Yr    1 of   33 Time  21:16:14
  Original Simulation        8  30  1988 Yr    1 of   33 Time  21:16:14
  Original Simulation        8  31  1988 Yr    1 of   33 Time  21:16:14
  Original Simulation        9   1  1988 Yr    1 of   33 Time  21:16:14
  Original Simulation        9   2  1988 Yr    1 of   33 Time  21:16:15
  Original Simulation        9   3  1988 Yr    1 of   33 Time  21:16:15
  Original Simulation        9   4  1988 Yr    1 of   33 Time  21:16:15
  Original Simulation        9   5  1988 Yr    1 of   33 Time  21:16:15
  Original Simulation        9   6  1988 Yr    1 of   33 Time  21:16:15
  Original Simulation        9   7  1988 Yr    1 of   33 Time  21:16:16
  Original Simulation        9   8  1988 Yr    1 of   33 Time  21:16:16
  Original Simulation        9   9  1988 Yr    1 of   33 Time  21:16:16
  Original Simulation        9  10  1988 Yr    1 of   33 Time  21:16:16
  Original Simulation        9  11  1988 Yr    1 of   33 Time  21:16:17
  Original Simulation        9  12  1988 Yr    1 of   33 Time  21:16:17
  Original Simulation        9  13  1988 Yr    1 of   33 Time  21:16:17
  Original Simulation        9  14  1988 Yr    1 of   33 Time  21:16:17
  Original Simulation        9  15  1988 Yr    1 of   33 Time  21:16:17
  Original Simulation        9  16  1988 Yr    1 of   33 Time  21:16:18
  Original Simulation        9  17  1988 Yr    1 of   33 Time  21:16:18
  Original Simulation        9  18  1988 Yr    1 of   33 Time  21:16:18
  Original Simulation        9  19  1988 Yr    1 of   33 Time  21:16:18
  Original Simulation        9  20  1988 Yr    1 of   33 Time  21:16:18
  Original Simulation        9  21  1988 Yr    1 of   33 Time  21:16:19
  Original Simulation        9  22  1988 Yr    1 of   33 Time  21:16:19
  Original Simulation        9  23  1988 Yr    1 of   33 Time  21:16:19
  Original Simulation        9  24  1988 Yr    1 of   33 Time  21:16:19
  Original Simulation        9  25  1988 Yr    1 of   33 Time  21:16:19
  Original Simulation        9  26  1988 Yr    1 of   33 Time  21:16:20
  Original Simulation        9  27  1988 Yr    1 of   33 Time  21:16:20
  Original Simulation        9  28  1988 Yr    1 of   33 Time  21:16:20
  Original Simulation        9  29  1988 Yr    1 of   33 Time  21:16:20
  Original Simulation        9  30  1988 Yr    1 of   33 Time  21:16:20
  Original Simulation       10   1  1988 Yr    1 of   33 Time  21:16:21
  Original Simulation       10   2  1988 Yr    1 of   33 Time  21:16:21
  Original Simulation       10   3  1988 Yr    1 of   33 Time  21:16:21
  Original Simulation       10   4  1988 Yr    1 of   33 Time  21:16:21
  Original Simulation       10   5  1988 Yr    1 of   33 Time  21:16:21
  Original Simulation       10   6  1988 Yr    1 of   33 Time  21:16:22
  Original Simulation       10   7  1988 Yr    1 of   33 Time  21:16:22
  Original Simulation       10   8  1988 Yr    1 of   33 Time  21:16:22
  Original Simulation       10   9  1988 Yr    1 of   33 Time  21:16:22
  Original Simulation       10  10  1988 Yr    1 of   33 Time  21:16:22
  Original Simulation       10  11  1988 Yr    1 of   33 Time  21:16:23
  Original Simulation       10  12  1988 Yr    1 of   33 Time  21:16:23
  Original Simulation       10  13  1988 Yr    1 of   33 Time  21:16:23
  Original Simulation       10  14  1988 Yr    1 of   33 Time  21:16:23
  Original Simulation       10  15  1988 Yr    1 of   33 Time  21:16:24
  Original Simulation       10  16  1988 Yr    1 of   33 Time  21:16:24
  Original Simulation       10  17  1988 Yr    1 of   33 Time  21:16:24
  Original Simulation       10  18  1988 Yr    1 of   33 Time  21:16:24
  Original Simulation       10  19  1988 Yr    1 of   33 Time  21:16:24
  Original Simulation       10  20  1988 Yr    1 of   33 Time  21:16:25
  Original Simulation       10  21  1988 Yr    1 of   33 Time  21:16:25
  Original Simulation       10  22  1988 Yr    1 of   33 Time  21:16:25
  Original Simulation       10  23  1988 Yr    1 of   33 Time  21:16:25
  Original Simulation       10  24  1988 Yr    1 of   33 Time  21:16:25
  Original Simulation       10  25  1988 Yr    1 of   33 Time  21:16:26
  Original Simulation       10  26  1988 Yr    1 of   33 Time  21:16:26
  Original Simulation       10  27  1988 Yr    1 of   33 Time  21:16:26
  Original Simulation       10  28  1988 Yr    1 of   33 Time  21:16:26
  Original Simulation       10  29  1988 Yr    1 of   33 Time  21:16:26
  Original Simulation       10  30  1988 Yr    1 of   33 Time  21:16:27
  Original Simulation       10  31  1988 Yr    1 of   33 Time  21:16:27
  Original Simulation       11   1  1988 Yr    1 of   33 Time  21:16:27
  Original Simulation       11   2  1988 Yr    1 of   33 Time  21:16:27
  Original Simulation       11   3  1988 Yr    1 of   33 Time  21:16:27
  Original Simulation       11   4  1988 Yr    1 of   33 Time  21:16:28
  Original Simulation       11   5  1988 Yr    1 of   33 Time  21:16:28
  Original Simulation       11   6  1988 Yr    1 of   33 Time  21:16:28
  Original Simulation       11   7  1988 Yr    1 of   33 Time  21:16:28
  Original Simulation       11   8  1988 Yr    1 of   33 Time  21:16:28
  Original Simulation       11   9  1988 Yr    1 of   33 Time  21:16:29
  Original Simulation       11  10  1988 Yr    1 of   33 Time  21:16:29
  Original Simulation       11  11  1988 Yr    1 of   33 Time  21:16:29
  Original Simulation       11  12  1988 Yr    1 of   33 Time  21:16:29
  Original Simulation       11  13  1988 Yr    1 of   33 Time  21:16:29
  Original Simulation       11  14  1988 Yr    1 of   33 Time  21:16:30
  Original Simulation       11  15  1988 Yr    1 of   33 Time  21:16:30
  Original Simulation       11  16  1988 Yr    1 of   33 Time  21:16:30
  Original Simulation       11  17  1988 Yr    1 of   33 Time  21:16:30
  Original Simulation       11  18  1988 Yr    1 of   33 Time  21:16:30
  Original Simulation       11  19  1988 Yr    1 of   33 Time  21:16:31
  Original Simulation       11  20  1988 Yr    1 of   33 Time  21:16:31
  Original Simulation       11  21  1988 Yr    1 of   33 Time  21:16:31
  Original Simulation       11  22  1988 Yr    1 of   33 Time  21:16:31
  Original Simulation       11  23  1988 Yr    1 of   33 Time  21:16:31
  Original Simulation       11  24  1988 Yr    1 of   33 Time  21:16:32
  Original Simulation       11  25  1988 Yr    1 of   33 Time  21:16:32
  Original Simulation       11  26  1988 Yr    1 of   33 Time  21:16:32
  Original Simulation       11  27  1988 Yr    1 of   33 Time  21:16:32
  Original Simulation       11  28  1988 Yr    1 of   33 Time  21:16:32
  Original Simulation       11  29  1988 Yr    1 of   33 Time  21:16:33
  Original Simulation       11  30  1988 Yr    1 of   33 Time  21:16:33
  Original Simulation       12   1  1988 Yr    1 of   33 Time  21:16:33
  Original Simulation       12   2  1988 Yr    1 of   33 Time  21:16:33
  Original Simulation       12   3  1988 Yr    1 of   33 Time  21:16:33
  Original Simulation       12   4  1988 Yr    1 of   33 Time  21:16:34
  Original Simulation       12   5  1988 Yr    1 of   33 Time  21:16:34
  Original Simulation       12   6  1988 Yr    1 of   33 Time  21:16:34
  Original Simulation       12   7  1988 Yr    1 of   33 Time  21:16:34
  Original Simulation       12   8  1988 Yr    1 of   33 Time  21:16:34
  Original Simulation       12   9  1988 Yr    1 of   33 Time  21:16:35
  Original Simulation       12  10  1988 Yr    1 of   33 Time  21:16:35
  Original Simulation       12  11  1988 Yr    1 of   33 Time  21:16:35
  Original Simulation       12  12  1988 Yr    1 of   33 Time  21:16:35
  Original Simulation       12  13  1988 Yr    1 of   33 Time  21:16:35
  Original Simulation       12  14  1988 Yr    1 of   33 Time  21:16:36
  Original Simulation       12  15  1988 Yr    1 of   33 Time  21:16:36
  Original Simulation       12  16  1988 Yr    1 of   33 Time  21:16:36
  Original Simulation       12  17  1988 Yr    1 of   33 Time  21:16:36
  Original Simulation       12  18  1988 Yr    1 of   33 Time  21:16:37
  Original Simulation       12  19  1988 Yr    1 of   33 Time  21:16:37
  Original Simulation       12  20  1988 Yr    1 of   33 Time  21:16:37
  Original Simulation       12  21  1988 Yr    1 of   33 Time  21:16:37
  Original Simulation       12  22  1988 Yr    1 of   33 Time  21:16:37
  Original Simulation       12  23  1988 Yr    1 of   33 Time  21:16:38
  Original Simulation       12  24  1988 Yr    1 of   33 Time  21:16:38
  Original Simulation       12  25  1988 Yr    1 of   33 Time  21:16:38
  Original Simulation       12  26  1988 Yr    1 of   33 Time  21:16:38
  Original Simulation       12  27  1988 Yr    1 of   33 Time  21:16:38
  Original Simulation       12  28  1988 Yr    1 of   33 Time  21:16:39
  Original Simulation       12  29  1988 Yr    1 of   33 Time  21:16:39
  Original Simulation       12  30  1988 Yr    1 of   33 Time  21:16:39
  Original Simulation       12  31  1988 Yr    1 of   33 Time  21:16:39
  Original Simulation        1   1  1989 Yr    2 of   33 Time  21:16:39
  Original Simulation        1   2  1989 Yr    2 of   33 Time  21:16:40
  Original Simulation        1   3  1989 Yr    2 of   33 Time  21:16:40
  Original Simulation        1   4  1989 Yr    2 of   33 Time  21:16:40
  Original Simulation        1   5  1989 Yr    2 of   33 Time  21:16:40
  Original Simulation        1   6  1989 Yr    2 of   33 Time  21:16:40
  Original Simulation        1   7  1989 Yr    2 of   33 Time  21:16:41
  Original Simulation        1   8  1989 Yr    2 of   33 Time  21:16:41
  Original Simulation        1   9  1989 Yr    2 of   33 Time  21:16:41
  Original Simulation        1  10  1989 Yr    2 of   33 Time  21:16:41
  Original Simulation        1  11  1989 Yr    2 of   33 Time  21:16:41
  Original Simulation        1  12  1989 Yr    2 of   33 Time  21:16:42
  Original Simulation        1  13  1989 Yr    2 of   33 Time  21:16:42
  Original Simulation        1  14  1989 Yr    2 of   33 Time  21:16:42
  Original Simulation        1  15  1989 Yr    2 of   33 Time  21:16:42
  Original Simulation        1  16  1989 Yr    2 of   33 Time  21:16:42
  Original Simulation        1  17  1989 Yr    2 of   33 Time  21:16:43
  Original Simulation        1  18  1989 Yr    2 of   33 Time  21:16:43
  Original Simulation        1  19  1989 Yr    2 of   33 Time  21:16:43
  Original Simulation        1  20  1989 Yr    2 of   33 Time  21:16:43
  Original Simulation        1  21  1989 Yr    2 of   33 Time  21:16:43
  Original Simulation        1  22  1989 Yr    2 of   33 Time  21:16:44
  Original Simulation        1  23  1989 Yr    2 of   33 Time  21:16:44
  Original Simulation        1  24  1989 Yr    2 of   33 Time  21:16:44
  Original Simulation        1  25  1989 Yr    2 of   33 Time  21:16:44
  Original Simulation        1  26  1989 Yr    2 of   33 Time  21:16:44
  Original Simulation        1  27  1989 Yr    2 of   33 Time  21:16:44
  Original Simulation        1  28  1989 Yr    2 of   33 Time  21:16:45
  Original Simulation        1  29  1989 Yr    2 of   33 Time  21:16:45
  Original Simulation        1  30  1989 Yr    2 of   33 Time  21:16:45
  Original Simulation        1  31  1989 Yr    2 of   33 Time  21:16:45
  Original Simulation        2   1  1989 Yr    2 of   33 Time  21:16:45
  Original Simulation        2   2  1989 Yr    2 of   33 Time  21:16:46
  Original Simulation        2   3  1989 Yr    2 of   33 Time  21:16:46
  Original Simulation        2   4  1989 Yr    2 of   33 Time  21:16:46
  Original Simulation        2   5  1989 Yr    2 of   33 Time  21:16:46
  Original Simulation        2   6  1989 Yr    2 of   33 Time  21:16:46
  Original Simulation        2   7  1989 Yr    2 of   33 Time  21:16:47
  Original Simulation        2   8  1989 Yr    2 of   33 Time  21:16:47
  Original Simulation        2   9  1989 Yr    2 of   33 Time  21:16:47
  Original Simulation        2  10  1989 Yr    2 of   33 Time  21:16:47
  Original Simulation        2  11  1989 Yr    2 of   33 Time  21:16:47
  Original Simulation        2  12  1989 Yr    2 of   33 Time  21:16:48
  Original Simulation        2  13  1989 Yr    2 of   33 Time  21:16:48
  Original Simulation        2  14  1989 Yr    2 of   33 Time  21:16:48
  Original Simulation        2  15  1989 Yr    2 of   33 Time  21:16:48
  Original Simulation        2  16  1989 Yr    2 of   33 Time  21:16:48
  Original Simulation        2  17  1989 Yr    2 of   33 Time  21:16:49
  Original Simulation        2  18  1989 Yr    2 of   33 Time  21:16:49
  Original Simulation        2  19  1989 Yr    2 of   33 Time  21:16:49
  Original Simulation        2  20  1989 Yr    2 of   33 Time  21:16:49
  Original Simulation        2  21  1989 Yr    2 of   33 Time  21:16:50
  Original Simulation        2  22  1989 Yr    2 of   33 Time  21:16:50
  Original Simulation        2  23  1989 Yr    2 of   33 Time  21:16:50
  Original Simulation        2  24  1989 Yr    2 of   33 Time  21:16:50
  Original Simulation        2  25  1989 Yr    2 of   33 Time  21:16:50
  Original Simulation        2  26  1989 Yr    2 of   33 Time  21:16:51
  Original Simulation        2  27  1989 Yr    2 of   33 Time  21:16:51
  Original Simulation        2  28  1989 Yr    2 of   33 Time  21:16:51
  Original Simulation        3   1  1989 Yr    2 of   33 Time  21:16:51
  Original Simulation        3   2  1989 Yr    2 of   33 Time  21:16:51
  Original Simulation        3   3  1989 Yr    2 of   33 Time  21:16:52
  Original Simulation        3   4  1989 Yr    2 of   33 Time  21:16:52
  Original Simulation        3   5  1989 Yr    2 of   33 Time  21:16:52
  Original Simulation        3   6  1989 Yr    2 of   33 Time  21:16:52
  Original Simulation        3   7  1989 Yr    2 of   33 Time  21:16:52
  Original Simulation        3   8  1989 Yr    2 of   33 Time  21:16:53
  Original Simulation        3   9  1989 Yr    2 of   33 Time  21:16:53
  Original Simulation        3  10  1989 Yr    2 of   33 Time  21:16:53
  Original Simulation        3  11  1989 Yr    2 of   33 Time  21:16:53
  Original Simulation        3  12  1989 Yr    2 of   33 Time  21:16:54
  Original Simulation        3  13  1989 Yr    2 of   33 Time  21:16:54
  Original Simulation        3  14  1989 Yr    2 of   33 Time  21:16:54
  Original Simulation        3  15  1989 Yr    2 of   33 Time  21:16:54
  Original Simulation        3  16  1989 Yr    2 of   33 Time  21:16:54
  Original Simulation        3  17  1989 Yr    2 of   33 Time  21:16:55
  Original Simulation        3  18  1989 Yr    2 of   33 Time  21:16:55
  Original Simulation        3  19  1989 Yr    2 of   33 Time  21:16:55
  Original Simulation        3  20  1989 Yr    2 of   33 Time  21:16:55
  Original Simulation        3  21  1989 Yr    2 of   33 Time  21:16:55
  Original Simulation        3  22  1989 Yr    2 of   33 Time  21:16:56
  Original Simulation        3  23  1989 Yr    2 of   33 Time  21:16:56
  Original Simulation        3  24  1989 Yr    2 of   33 Time  21:16:56
  Original Simulation        3  25  1989 Yr    2 of   33 Time  21:16:56
  Original Simulation        3  26  1989 Yr    2 of   33 Time  21:16:56
  Original Simulation        3  27  1989 Yr    2 of   33 Time  21:16:57
  Original Simulation        3  28  1989 Yr    2 of   33 Time  21:16:57
  Original Simulation        3  29  1989 Yr    2 of   33 Time  21:16:57
  Original Simulation        3  30  1989 Yr    2 of   33 Time  21:16:57
  Original Simulation        3  31  1989 Yr    2 of   33 Time  21:16:58
  Original Simulation        4   1  1989 Yr    2 of   33 Time  21:16:58
  Original Simulation        4   2  1989 Yr    2 of   33 Time  21:16:58
  Original Simulation        4   3  1989 Yr    2 of   33 Time  21:16:58
  Original Simulation        4   4  1989 Yr    2 of   33 Time  21:16:58
  Original Simulation        4   5  1989 Yr    2 of   33 Time  21:16:59
  Original Simulation        4   6  1989 Yr    2 of   33 Time  21:16:59
  Original Simulation        4   7  1989 Yr    2 of   33 Time  21:16:59
  Original Simulation        4   8  1989 Yr    2 of   33 Time  21:16:59
  Original Simulation        4   9  1989 Yr    2 of   33 Time  21:16:59
  Original Simulation        4  10  1989 Yr    2 of   33 Time  21:17: 0
  Original Simulation        4  11  1989 Yr    2 of   33 Time  21:17: 0
  Original Simulation        4  12  1989 Yr    2 of   33 Time  21:17: 0
  Original Simulation        4  13  1989 Yr    2 of   33 Time  21:17: 0
  Original Simulation        4  14  1989 Yr    2 of   33 Time  21:17: 0
  Original Simulation        4  15  1989 Yr    2 of   33 Time  21:17: 1
  Original Simulation        4  16  1989 Yr    2 of   33 Time  21:17: 1
  Original Simulation        4  17  1989 Yr    2 of   33 Time  21:17: 1
  Original Simulation        4  18  1989 Yr    2 of   33 Time  21:17: 1
  Original Simulation        4  19  1989 Yr    2 of   33 Time  21:17: 1
  Original Simulation        4  20  1989 Yr    2 of   33 Time  21:17: 2
  Original Simulation        4  21  1989 Yr    2 of   33 Time  21:17: 2
  Original Simulation        4  22  1989 Yr    2 of   33 Time  21:17: 2
  Original Simulation        4  23  1989 Yr    2 of   33 Time  21:17: 2
  Original Simulation        4  24  1989 Yr    2 of   33 Time  21:17: 2
  Original Simulation        4  25  1989 Yr    2 of   33 Time  21:17: 3
  Original Simulation        4  26  1989 Yr    2 of   33 Time  21:17: 3
  Original Simulation        4  27  1989 Yr    2 of   33 Time  21:17: 3
  Original Simulation        4  28  1989 Yr    2 of   33 Time  21:17: 3
  Original Simulation        4  29  1989 Yr    2 of   33 Time  21:17: 3
  Original Simulation        4  30  1989 Yr    2 of   33 Time  21:17: 4
  Original Simulation        5   1  1989 Yr    2 of   33 Time  21:17: 4
  Original Simulation        5   2  1989 Yr    2 of   33 Time  21:17: 4
  Original Simulation        5   3  1989 Yr    2 of   33 Time  21:17: 4
  Original Simulation        5   4  1989 Yr    2 of   33 Time  21:17: 5
  Original Simulation        5   5  1989 Yr    2 of   33 Time  21:17: 5
  Original Simulation        5   6  1989 Yr    2 of   33 Time  21:17: 5
  Original Simulation        5   7  1989 Yr    2 of   33 Time  21:17: 5
  Original Simulation        5   8  1989 Yr    2 of   33 Time  21:17: 5
  Original Simulation        5   9  1989 Yr    2 of   33 Time  21:17: 6
  Original Simulation        5  10  1989 Yr    2 of   33 Time  21:17: 6
  Original Simulation        5  11  1989 Yr    2 of   33 Time  21:17: 6
  Original Simulation        5  12  1989 Yr    2 of   33 Time  21:17: 6
  Original Simulation        5  13  1989 Yr    2 of   33 Time  21:17: 6
  Original Simulation        5  14  1989 Yr    2 of   33 Time  21:17: 7
  Original Simulation        5  15  1989 Yr    2 of   33 Time  21:17: 7
  Original Simulation        5  16  1989 Yr    2 of   33 Time  21:17: 7
  Original Simulation        5  17  1989 Yr    2 of   33 Time  21:17: 7
  Original Simulation        5  18  1989 Yr    2 of   33 Time  21:17: 7
  Original Simulation        5  19  1989 Yr    2 of   33 Time  21:17: 8
  Original Simulation        5  20  1989 Yr    2 of   33 Time  21:17: 8
  Original Simulation        5  21  1989 Yr    2 of   33 Time  21:17: 8
  Original Simulation        5  22  1989 Yr    2 of   33 Time  21:17: 8
  Original Simulation        5  23  1989 Yr    2 of   33 Time  21:17: 8
  Original Simulation        5  24  1989 Yr    2 of   33 Time  21:17: 9
  Original Simulation        5  25  1989 Yr    2 of   33 Time  21:17: 9
  Original Simulation        5  26  1989 Yr    2 of   33 Time  21:17: 9
  Original Simulation        5  27  1989 Yr    2 of   33 Time  21:17: 9
  Original Simulation        5  28  1989 Yr    2 of   33 Time  21:17: 9
  Original Simulation        5  29  1989 Yr    2 of   33 Time  21:17:10
  Original Simulation        5  30  1989 Yr    2 of   33 Time  21:17:10
  Original Simulation        5  31  1989 Yr    2 of   33 Time  21:17:10
  Original Simulation        6   1  1989 Yr    2 of   33 Time  21:17:10
  Original Simulation        6   2  1989 Yr    2 of   33 Time  21:17:10
  Original Simulation        6   3  1989 Yr    2 of   33 Time  21:17:11
  Original Simulation        6   4  1989 Yr    2 of   33 Time  21:17:11
  Original Simulation        6   5  1989 Yr    2 of   33 Time  21:17:11
  Original Simulation        6   6  1989 Yr    2 of   33 Time  21:17:11
  Original Simulation        6   7  1989 Yr    2 of   33 Time  21:17:11
  Original Simulation        6   8  1989 Yr    2 of   33 Time  21:17:12
  Original Simulation        6   9  1989 Yr    2 of   33 Time  21:17:12
  Original Simulation        6  10  1989 Yr    2 of   33 Time  21:17:12
  Original Simulation        6  11  1989 Yr    2 of   33 Time  21:17:12
  Original Simulation        6  12  1989 Yr    2 of   33 Time  21:17:12
  Original Simulation        6  13  1989 Yr    2 of   33 Time  21:17:13
  Original Simulation        6  14  1989 Yr    2 of   33 Time  21:17:13
  Original Simulation        6  15  1989 Yr    2 of   33 Time  21:17:13
  Original Simulation        6  16  1989 Yr    2 of   33 Time  21:17:13
  Original Simulation        6  17  1989 Yr    2 of   33 Time  21:17:13
  Original Simulation        6  18  1989 Yr    2 of   33 Time  21:17:14
  Original Simulation        6  19  1989 Yr    2 of   33 Time  21:17:14
  Original Simulation        6  20  1989 Yr    2 of   33 Time  21:17:14
  Original Simulation        6  21  1989 Yr    2 of   33 Time  21:17:14
  Original Simulation        6  22  1989 Yr    2 of   33 Time  21:17:15
  Original Simulation        6  23  1989 Yr    2 of   33 Time  21:17:15
  Original Simulation        6  24  1989 Yr    2 of   33 Time  21:17:15
  Original Simulation        6  25  1989 Yr    2 of   33 Time  21:17:15
  Original Simulation        6  26  1989 Yr    2 of   33 Time  21:17:15
  Original Simulation        6  27  1989 Yr    2 of   33 Time  21:17:16
  Original Simulation        6  28  1989 Yr    2 of   33 Time  21:17:16
  Original Simulation        6  29  1989 Yr    2 of   33 Time  21:17:16
  Original Simulation        6  30  1989 Yr    2 of   33 Time  21:17:16
  Original Simulation        7   1  1989 Yr    2 of   33 Time  21:17:16
  Original Simulation        7   2  1989 Yr    2 of   33 Time  21:17:17
  Original Simulation        7   3  1989 Yr    2 of   33 Time  21:17:17
  Original Simulation        7   4  1989 Yr    2 of   33 Time  21:17:17
  Original Simulation        7   5  1989 Yr    2 of   33 Time  21:17:17
  Original Simulation        7   6  1989 Yr    2 of   33 Time  21:17:18
  Original Simulation        7   7  1989 Yr    2 of   33 Time  21:17:18
  Original Simulation        7   8  1989 Yr    2 of   33 Time  21:17:18
  Original Simulation        7   9  1989 Yr    2 of   33 Time  21:17:18
  Original Simulation        7  10  1989 Yr    2 of   33 Time  21:17:18
  Original Simulation        7  11  1989 Yr    2 of   33 Time  21:17:19
  Original Simulation        7  12  1989 Yr    2 of   33 Time  21:17:19
  Original Simulation        7  13  1989 Yr    2 of   33 Time  21:17:19
  Original Simulation        7  14  1989 Yr    2 of   33 Time  21:17:19
  Original Simulation        7  15  1989 Yr    2 of   33 Time  21:17:19
  Original Simulation        7  16  1989 Yr    2 of   33 Time  21:17:20
  Original Simulation        7  17  1989 Yr    2 of   33 Time  21:17:20
  Original Simulation        7  18  1989 Yr    2 of   33 Time  21:17:20
  Original Simulation        7  19  1989 Yr    2 of   33 Time  21:17:20
  Original Simulation        7  20  1989 Yr    2 of   33 Time  21:17:21
  Original Simulation        7  21  1989 Yr    2 of   33 Time  21:17:21
  Original Simulation        7  22  1989 Yr    2 of   33 Time  21:17:21
  Original Simulation        7  23  1989 Yr    2 of   33 Time  21:17:21
  Original Simulation        7  24  1989 Yr    2 of   33 Time  21:17:21
  Original Simulation        7  25  1989 Yr    2 of   33 Time  21:17:22
  Original Simulation        7  26  1989 Yr    2 of   33 Time  21:17:22
  Original Simulation        7  27  1989 Yr    2 of   33 Time  21:17:22
  Original Simulation        7  28  1989 Yr    2 of   33 Time  21:17:22
  Original Simulation        7  29  1989 Yr    2 of   33 Time  21:17:22
  Original Simulation        7  30  1989 Yr    2 of   33 Time  21:17:23
  Original Simulation        7  31  1989 Yr    2 of   33 Time  21:17:23
  Original Simulation        8   1  1989 Yr    2 of   33 Time  21:17:23
  Original Simulation        8   2  1989 Yr    2 of   33 Time  21:17:23
  Original Simulation        8   3  1989 Yr    2 of   33 Time  21:17:23
  Original Simulation        8   4  1989 Yr    2 of   33 Time  21:17:24
  Original Simulation        8   5  1989 Yr    2 of   33 Time  21:17:24
  Original Simulation        8   6  1989 Yr    2 of   33 Time  21:17:24
  Original Simulation        8   7  1989 Yr    2 of   33 Time  21:17:24
  Original Simulation        8   8  1989 Yr    2 of   33 Time  21:17:24
  Original Simulation        8   9  1989 Yr    2 of   33 Time  21:17:25
  Original Simulation        8  10  1989 Yr    2 of   33 Time  21:17:25
  Original Simulation        8  11  1989 Yr    2 of   33 Time  21:17:25
  Original Simulation        8  12  1989 Yr    2 of   33 Time  21:17:25
  Original Simulation        8  13  1989 Yr    2 of   33 Time  21:17:25
  Original Simulation        8  14  1989 Yr    2 of   33 Time  21:17:26
  Original Simulation        8  15  1989 Yr    2 of   33 Time  21:17:26
  Original Simulation        8  16  1989 Yr    2 of   33 Time  21:17:26
  Original Simulation        8  17  1989 Yr    2 of   33 Time  21:17:26
  Original Simulation        8  18  1989 Yr    2 of   33 Time  21:17:26
  Original Simulation        8  19  1989 Yr    2 of   33 Time  21:17:27
  Original Simulation        8  20  1989 Yr    2 of   33 Time  21:17:27
  Original Simulation        8  21  1989 Yr    2 of   33 Time  21:17:27
  Original Simulation        8  22  1989 Yr    2 of   33 Time  21:17:27
  Original Simulation        8  23  1989 Yr    2 of   33 Time  21:17:27
  Original Simulation        8  24  1989 Yr    2 of   33 Time  21:17:28
  Original Simulation        8  25  1989 Yr    2 of   33 Time  21:17:28
  Original Simulation        8  26  1989 Yr    2 of   33 Time  21:17:28
  Original Simulation        8  27  1989 Yr    2 of   33 Time  21:17:28
  Original Simulation        8  28  1989 Yr    2 of   33 Time  21:17:28
  Original Simulation        8  29  1989 Yr    2 of   33 Time  21:17:29
  Original Simulation        8  30  1989 Yr    2 of   33 Time  21:17:29
  Original Simulation        8  31  1989 Yr    2 of   33 Time  21:17:29
  Original Simulation        9   1  1989 Yr    2 of   33 Time  21:17:29
  Original Simulation        9   2  1989 Yr    2 of   33 Time  21:17:30
  Original Simulation        9   3  1989 Yr    2 of   33 Time  21:17:30
  Original Simulation        9   4  1989 Yr    2 of   33 Time  21:17:30
  Original Simulation        9   5  1989 Yr    2 of   33 Time  21:17:30
  Original Simulation        9   6  1989 Yr    2 of   33 Time  21:17:30
  Original Simulation        9   7  1989 Yr    2 of   33 Time  21:17:31
  Original Simulation        9   8  1989 Yr    2 of   33 Time  21:17:31
  Original Simulation        9   9  1989 Yr    2 of   33 Time  21:17:31
  Original Simulation        9  10  1989 Yr    2 of   33 Time  21:17:31
  Original Simulation        9  11  1989 Yr    2 of   33 Time  21:17:31
  Original Simulation        9  12  1989 Yr    2 of   33 Time  21:17:32
  Original Simulation        9  13  1989 Yr    2 of   33 Time  21:17:32
  Original Simulation        9  14  1989 Yr    2 of   33 Time  21:17:32
  Original Simulation        9  15  1989 Yr    2 of   33 Time  21:17:32
  Original Simulation        9  16  1989 Yr    2 of   33 Time  21:17:32
  Original Simulation        9  17  1989 Yr    2 of   33 Time  21:17:33
  Original Simulation        9  18  1989 Yr    2 of   33 Time  21:17:33
  Original Simulation        9  19  1989 Yr    2 of   33 Time  21:17:33
  Original Simulation        9  20  1989 Yr    2 of   33 Time  21:17:33
  Original Simulation        9  21  1989 Yr    2 of   33 Time  21:17:33
  Original Simulation        9  22  1989 Yr    2 of   33 Time  21:17:34
  Original Simulation        9  23  1989 Yr    2 of   33 Time  21:17:34
  Original Simulation        9  24  1989 Yr    2 of   33 Time  21:17:34
  Original Simulation        9  25  1989 Yr    2 of   33 Time  21:17:34
  Original Simulation        9  26  1989 Yr    2 of   33 Time  21:17:34
  Original Simulation        9  27  1989 Yr    2 of   33 Time  21:17:35
  Original Simulation        9  28  1989 Yr    2 of   33 Time  21:17:35
  Original Simulation        9  29  1989 Yr    2 of   33 Time  21:17:35
  Original Simulation        9  30  1989 Yr    2 of   33 Time  21:17:35
  Original Simulation       10   1  1989 Yr    2 of   33 Time  21:17:35
  Original Simulation       10   2  1989 Yr    2 of   33 Time  21:17:36
  Original Simulation       10   3  1989 Yr    2 of   33 Time  21:17:36
  Original Simulation       10   4  1989 Yr    2 of   33 Time  21:17:36
  Original Simulation       10   5  1989 Yr    2 of   33 Time  21:17:36
  Original Simulation       10   6  1989 Yr    2 of   33 Time  21:17:36
  Original Simulation       10   7  1989 Yr    2 of   33 Time  21:17:37
  Original Simulation       10   8  1989 Yr    2 of   33 Time  21:17:37
  Original Simulation       10   9  1989 Yr    2 of   33 Time  21:17:37
  Original Simulation       10  10  1989 Yr    2 of   33 Time  21:17:37
  Original Simulation       10  11  1989 Yr    2 of   33 Time  21:17:37
  Original Simulation       10  12  1989 Yr    2 of   33 Time  21:17:38
  Original Simulation       10  13  1989 Yr    2 of   33 Time  21:17:38
  Original Simulation       10  14  1989 Yr    2 of   33 Time  21:17:38
  Original Simulation       10  15  1989 Yr    2 of   33 Time  21:17:38
  Original Simulation       10  16  1989 Yr    2 of   33 Time  21:17:38
  Original Simulation       10  17  1989 Yr    2 of   33 Time  21:17:39
  Original Simulation       10  18  1989 Yr    2 of   33 Time  21:17:39
  Original Simulation       10  19  1989 Yr    2 of   33 Time  21:17:39
  Original Simulation       10  20  1989 Yr    2 of   33 Time  21:17:39
  Original Simulation       10  21  1989 Yr    2 of   33 Time  21:17:40
  Original Simulation       10  22  1989 Yr    2 of   33 Time  21:17:40
  Original Simulation       10  23  1989 Yr    2 of   33 Time  21:17:40
  Original Simulation       10  24  1989 Yr    2 of   33 Time  21:17:40
  Original Simulation       10  25  1989 Yr    2 of   33 Time  21:17:40
  Original Simulation       10  26  1989 Yr    2 of   33 Time  21:17:41
  Original Simulation       10  27  1989 Yr    2 of   33 Time  21:17:41
  Original Simulation       10  28  1989 Yr    2 of   33 Time  21:17:41
  Original Simulation       10  29  1989 Yr    2 of   33 Time  21:17:41
  Original Simulation       10  30  1989 Yr    2 of   33 Time  21:17:41
  Original Simulation       10  31  1989 Yr    2 of   33 Time  21:17:42
  Original Simulation       11   1  1989 Yr    2 of   33 Time  21:17:42
  Original Simulation       11   2  1989 Yr    2 of   33 Time  21:17:42
  Original Simulation       11   3  1989 Yr    2 of   33 Time  21:17:42
  Original Simulation       11   4  1989 Yr    2 of   33 Time  21:17:42
  Original Simulation       11   5  1989 Yr    2 of   33 Time  21:17:43
  Original Simulation       11   6  1989 Yr    2 of   33 Time  21:17:43
  Original Simulation       11   7  1989 Yr    2 of   33 Time  21:17:43
  Original Simulation       11   8  1989 Yr    2 of   33 Time  21:17:43
  Original Simulation       11   9  1989 Yr    2 of   33 Time  21:17:43
  Original Simulation       11  10  1989 Yr    2 of   33 Time  21:17:44
  Original Simulation       11  11  1989 Yr    2 of   33 Time  21:17:44
  Original Simulation       11  12  1989 Yr    2 of   33 Time  21:17:44
  Original Simulation       11  13  1989 Yr    2 of   33 Time  21:17:44
  Original Simulation       11  14  1989 Yr    2 of   33 Time  21:17:44
  Original Simulation       11  15  1989 Yr    2 of   33 Time  21:17:45
  Original Simulation       11  16  1989 Yr    2 of   33 Time  21:17:45
  Original Simulation       11  17  1989 Yr    2 of   33 Time  21:17:45
  Original Simulation       11  18  1989 Yr    2 of   33 Time  21:17:45
  Original Simulation       11  19  1989 Yr    2 of   33 Time  21:17:45
  Original Simulation       11  20  1989 Yr    2 of   33 Time  21:17:46
  Original Simulation       11  21  1989 Yr    2 of   33 Time  21:17:46
  Original Simulation       11  22  1989 Yr    2 of   33 Time  21:17:46
  Original Simulation       11  23  1989 Yr    2 of   33 Time  21:17:46
  Original Simulation       11  24  1989 Yr    2 of   33 Time  21:17:46
  Original Simulation       11  25  1989 Yr    2 of   33 Time  21:17:47
  Original Simulation       11  26  1989 Yr    2 of   33 Time  21:17:47
  Original Simulation       11  27  1989 Yr    2 of   33 Time  21:17:47
  Original Simulation       11  28  1989 Yr    2 of   33 Time  21:17:47
  Original Simulation       11  29  1989 Yr    2 of   33 Time  21:17:47
  Original Simulation       11  30  1989 Yr    2 of   33 Time  21:17:48
  Original Simulation       12   1  1989 Yr    2 of   33 Time  21:17:48
  Original Simulation       12   2  1989 Yr    2 of   33 Time  21:17:48
  Original Simulation       12   3  1989 Yr    2 of   33 Time  21:17:48
  Original Simulation       12   4  1989 Yr    2 of   33 Time  21:17:48
  Original Simulation       12   5  1989 Yr    2 of   33 Time  21:17:49
  Original Simulation       12   6  1989 Yr    2 of   33 Time  21:17:49
  Original Simulation       12   7  1989 Yr    2 of   33 Time  21:17:49
  Original Simulation       12   8  1989 Yr    2 of   33 Time  21:17:49
  Original Simulation       12   9  1989 Yr    2 of   33 Time  21:17:49
  Original Simulation       12  10  1989 Yr    2 of   33 Time  21:17:49
  Original Simulation       12  11  1989 Yr    2 of   33 Time  21:17:50
  Original Simulation       12  12  1989 Yr    2 of   33 Time  21:17:50
  Original Simulation       12  13  1989 Yr    2 of   33 Time  21:17:50
  Original Simulation       12  14  1989 Yr    2 of   33 Time  21:17:50
  Original Simulation       12  15  1989 Yr    2 of   33 Time  21:17:51
  Original Simulation       12  16  1989 Yr    2 of   33 Time  21:17:51
  Original Simulation       12  17  1989 Yr    2 of   33 Time  21:17:51
  Original Simulation       12  18  1989 Yr    2 of   33 Time  21:17:51
  Original Simulation       12  19  1989 Yr    2 of   33 Time  21:17:51
  Original Simulation       12  20  1989 Yr    2 of   33 Time  21:17:52
  Original Simulation       12  21  1989 Yr    2 of   33 Time  21:17:52
  Original Simulation       12  22  1989 Yr    2 of   33 Time  21:17:52
  Original Simulation       12  23  1989 Yr    2 of   33 Time  21:17:52
  Original Simulation       12  24  1989 Yr    2 of   33 Time  21:17:52
  Original Simulation       12  25  1989 Yr    2 of   33 Time  21:17:52
  Original Simulation       12  26  1989 Yr    2 of   33 Time  21:17:53
  Original Simulation       12  27  1989 Yr    2 of   33 Time  21:17:53
  Original Simulation       12  28  1989 Yr    2 of   33 Time  21:17:53
  Original Simulation       12  29  1989 Yr    2 of   33 Time  21:17:53
  Original Simulation       12  30  1989 Yr    2 of   33 Time  21:17:53
  Original Simulation       12  31  1989 Yr    2 of   33 Time  21:17:54
  Original Simulation        1   1  1990 Yr    3 of   33 Time  21:17:54
  Original Simulation        1   2  1990 Yr    3 of   33 Time  21:17:54
  Original Simulation        1   3  1990 Yr    3 of   33 Time  21:17:54
  Original Simulation        1   4  1990 Yr    3 of   33 Time  21:17:54
  Original Simulation        1   5  1990 Yr    3 of   33 Time  21:17:55
  Original Simulation        1   6  1990 Yr    3 of   33 Time  21:17:55
  Original Simulation        1   7  1990 Yr    3 of   33 Time  21:17:55
  Original Simulation        1   8  1990 Yr    3 of   33 Time  21:17:55
  Original Simulation        1   9  1990 Yr    3 of   33 Time  21:17:55
  Original Simulation        1  10  1990 Yr    3 of   33 Time  21:17:56
  Original Simulation        1  11  1990 Yr    3 of   33 Time  21:17:56
  Original Simulation        1  12  1990 Yr    3 of   33 Time  21:17:56
  Original Simulation        1  13  1990 Yr    3 of   33 Time  21:17:56
  Original Simulation        1  14  1990 Yr    3 of   33 Time  21:17:56
  Original Simulation        1  15  1990 Yr    3 of   33 Time  21:17:57
  Original Simulation        1  16  1990 Yr    3 of   33 Time  21:17:57
  Original Simulation        1  17  1990 Yr    3 of   33 Time  21:17:57
  Original Simulation        1  18  1990 Yr    3 of   33 Time  21:17:57
  Original Simulation        1  19  1990 Yr    3 of   33 Time  21:17:57
  Original Simulation        1  20  1990 Yr    3 of   33 Time  21:17:57
  Original Simulation        1  21  1990 Yr    3 of   33 Time  21:17:58
  Original Simulation        1  22  1990 Yr    3 of   33 Time  21:17:58
  Original Simulation        1  23  1990 Yr    3 of   33 Time  21:17:58
  Original Simulation        1  24  1990 Yr    3 of   33 Time  21:17:58
  Original Simulation        1  25  1990 Yr    3 of   33 Time  21:17:58
  Original Simulation        1  26  1990 Yr    3 of   33 Time  21:17:59
  Original Simulation        1  27  1990 Yr    3 of   33 Time  21:17:59
  Original Simulation        1  28  1990 Yr    3 of   33 Time  21:17:59
  Original Simulation        1  29  1990 Yr    3 of   33 Time  21:17:59
  Original Simulation        1  30  1990 Yr    3 of   33 Time  21:17:59
  Original Simulation        1  31  1990 Yr    3 of   33 Time  21:18: 0
  Original Simulation        2   1  1990 Yr    3 of   33 Time  21:18: 0
  Original Simulation        2   2  1990 Yr    3 of   33 Time  21:18: 0
  Original Simulation        2   3  1990 Yr    3 of   33 Time  21:18: 0
  Original Simulation        2   4  1990 Yr    3 of   33 Time  21:18: 0
  Original Simulation        2   5  1990 Yr    3 of   33 Time  21:18: 1
  Original Simulation        2   6  1990 Yr    3 of   33 Time  21:18: 1
  Original Simulation        2   7  1990 Yr    3 of   33 Time  21:18: 1
  Original Simulation        2   8  1990 Yr    3 of   33 Time  21:18: 1
  Original Simulation        2   9  1990 Yr    3 of   33 Time  21:18: 1
  Original Simulation        2  10  1990 Yr    3 of   33 Time  21:18: 2
  Original Simulation        2  11  1990 Yr    3 of   33 Time  21:18: 2
  Original Simulation        2  12  1990 Yr    3 of   33 Time  21:18: 2
  Original Simulation        2  13  1990 Yr    3 of   33 Time  21:18: 2
  Original Simulation        2  14  1990 Yr    3 of   33 Time  21:18: 2
  Original Simulation        2  15  1990 Yr    3 of   33 Time  21:18: 3
  Original Simulation        2  16  1990 Yr    3 of   33 Time  21:18: 3
  Original Simulation        2  17  1990 Yr    3 of   33 Time  21:18: 3
  Original Simulation        2  18  1990 Yr    3 of   33 Time  21:18: 3
  Original Simulation        2  19  1990 Yr    3 of   33 Time  21:18: 3
  Original Simulation        2  20  1990 Yr    3 of   33 Time  21:18: 4
  Original Simulation        2  21  1990 Yr    3 of   33 Time  21:18: 4
  Original Simulation        2  22  1990 Yr    3 of   33 Time  21:18: 4
  Original Simulation        2  23  1990 Yr    3 of   33 Time  21:18: 4
  Original Simulation        2  24  1990 Yr    3 of   33 Time  21:18: 5
  Original Simulation        2  25  1990 Yr    3 of   33 Time  21:18: 5
  Original Simulation        2  26  1990 Yr    3 of   33 Time  21:18: 5
  Original Simulation        2  27  1990 Yr    3 of   33 Time  21:18: 5
  Original Simulation        2  28  1990 Yr    3 of   33 Time  21:18: 5
  Original Simulation        3   1  1990 Yr    3 of   33 Time  21:18: 6
  Original Simulation        3   2  1990 Yr    3 of   33 Time  21:18: 6
  Original Simulation        3   3  1990 Yr    3 of   33 Time  21:18: 6
  Original Simulation        3   4  1990 Yr    3 of   33 Time  21:18: 6
  Original Simulation        3   5  1990 Yr    3 of   33 Time  21:18: 6
  Original Simulation        3   6  1990 Yr    3 of   33 Time  21:18: 7
  Original Simulation        3   7  1990 Yr    3 of   33 Time  21:18: 7
  Original Simulation        3   8  1990 Yr    3 of   33 Time  21:18: 7
  Original Simulation        3   9  1990 Yr    3 of   33 Time  21:18: 7
  Original Simulation        3  10  1990 Yr    3 of   33 Time  21:18: 8
  Original Simulation        3  11  1990 Yr    3 of   33 Time  21:18: 8
  Original Simulation        3  12  1990 Yr    3 of   33 Time  21:18: 8
  Original Simulation        3  13  1990 Yr    3 of   33 Time  21:18: 8
  Original Simulation        3  14  1990 Yr    3 of   33 Time  21:18: 8
  Original Simulation        3  15  1990 Yr    3 of   33 Time  21:18: 9
  Original Simulation        3  16  1990 Yr    3 of   33 Time  21:18: 9
  Original Simulation        3  17  1990 Yr    3 of   33 Time  21:18: 9
  Original Simulation        3  18  1990 Yr    3 of   33 Time  21:18: 9
  Original Simulation        3  19  1990 Yr    3 of   33 Time  21:18: 9
  Original Simulation        3  20  1990 Yr    3 of   33 Time  21:18:10
  Original Simulation        3  21  1990 Yr    3 of   33 Time  21:18:10
  Original Simulation        3  22  1990 Yr    3 of   33 Time  21:18:10
  Original Simulation        3  23  1990 Yr    3 of   33 Time  21:18:10
  Original Simulation        3  24  1990 Yr    3 of   33 Time  21:18:10
  Original Simulation        3  25  1990 Yr    3 of   33 Time  21:18:11
  Original Simulation        3  26  1990 Yr    3 of   33 Time  21:18:11
  Original Simulation        3  27  1990 Yr    3 of   33 Time  21:18:11
  Original Simulation        3  28  1990 Yr    3 of   33 Time  21:18:11
  Original Simulation        3  29  1990 Yr    3 of   33 Time  21:18:11
  Original Simulation        3  30  1990 Yr    3 of   33 Time  21:18:12
  Original Simulation        3  31  1990 Yr    3 of   33 Time  21:18:12
  Original Simulation        4   1  1990 Yr    3 of   33 Time  21:18:12
  Original Simulation        4   2  1990 Yr    3 of   33 Time  21:18:12
  Original Simulation        4   3  1990 Yr    3 of   33 Time  21:18:12
  Original Simulation        4   4  1990 Yr    3 of   33 Time  21:18:13
  Original Simulation        4   5  1990 Yr    3 of   33 Time  21:18:13
  Original Simulation        4   6  1990 Yr    3 of   33 Time  21:18:13
  Original Simulation        4   7  1990 Yr    3 of   33 Time  21:18:13
  Original Simulation        4   8  1990 Yr    3 of   33 Time  21:18:13
  Original Simulation        4   9  1990 Yr    3 of   33 Time  21:18:14
  Original Simulation        4  10  1990 Yr    3 of   33 Time  21:18:14
  Original Simulation        4  11  1990 Yr    3 of   33 Time  21:18:14
  Original Simulation        4  12  1990 Yr    3 of   33 Time  21:18:14
  Original Simulation        4  13  1990 Yr    3 of   33 Time  21:18:14
  Original Simulation        4  14  1990 Yr    3 of   33 Time  21:18:15
  Original Simulation        4  15  1990 Yr    3 of   33 Time  21:18:15
  Original Simulation        4  16  1990 Yr    3 of   33 Time  21:18:15
  Original Simulation        4  17  1990 Yr    3 of   33 Time  21:18:15
  Original Simulation        4  18  1990 Yr    3 of   33 Time  21:18:15
  Original Simulation        4  19  1990 Yr    3 of   33 Time  21:18:16
  Original Simulation        4  20  1990 Yr    3 of   33 Time  21:18:16
  Original Simulation        4  21  1990 Yr    3 of   33 Time  21:18:16
  Original Simulation        4  22  1990 Yr    3 of   33 Time  21:18:16
  Original Simulation        4  23  1990 Yr    3 of   33 Time  21:18:16
  Original Simulation        4  24  1990 Yr    3 of   33 Time  21:18:17
  Original Simulation        4  25  1990 Yr    3 of   33 Time  21:18:17
  Original Simulation        4  26  1990 Yr    3 of   33 Time  21:18:17
  Original Simulation        4  27  1990 Yr    3 of   33 Time  21:18:17
  Original Simulation        4  28  1990 Yr    3 of   33 Time  21:18:17
  Original Simulation        4  29  1990 Yr    3 of   33 Time  21:18:18
  Original Simulation        4  30  1990 Yr    3 of   33 Time  21:18:18
  Original Simulation        5   1  1990 Yr    3 of   33 Time  21:18:18
  Original Simulation        5   2  1990 Yr    3 of   33 Time  21:18:18
  Original Simulation        5   3  1990 Yr    3 of   33 Time  21:18:18
  Original Simulation        5   4  1990 Yr    3 of   33 Time  21:18:19
  Original Simulation        5   5  1990 Yr    3 of   33 Time  21:18:19
  Original Simulation        5   6  1990 Yr    3 of   33 Time  21:18:19
  Original Simulation        5   7  1990 Yr    3 of   33 Time  21:18:19
  Original Simulation        5   8  1990 Yr    3 of   33 Time  21:18:19
  Original Simulation        5   9  1990 Yr    3 of   33 Time  21:18:20
  Original Simulation        5  10  1990 Yr    3 of   33 Time  21:18:20
  Original Simulation        5  11  1990 Yr    3 of   33 Time  21:18:20
  Original Simulation        5  12  1990 Yr    3 of   33 Time  21:18:20
  Original Simulation        5  13  1990 Yr    3 of   33 Time  21:18:20
  Original Simulation        5  14  1990 Yr    3 of   33 Time  21:18:21
  Original Simulation        5  15  1990 Yr    3 of   33 Time  21:18:21
  Original Simulation        5  16  1990 Yr    3 of   33 Time  21:18:21
  Original Simulation        5  17  1990 Yr    3 of   33 Time  21:18:21
  Original Simulation        5  18  1990 Yr    3 of   33 Time  21:18:22
  Original Simulation        5  19  1990 Yr    3 of   33 Time  21:18:22
  Original Simulation        5  20  1990 Yr    3 of   33 Time  21:18:22
  Original Simulation        5  21  1990 Yr    3 of   33 Time  21:18:22
  Original Simulation        5  22  1990 Yr    3 of   33 Time  21:18:22
  Original Simulation        5  23  1990 Yr    3 of   33 Time  21:18:23
  Original Simulation        5  24  1990 Yr    3 of   33 Time  21:18:23
  Original Simulation        5  25  1990 Yr    3 of   33 Time  21:18:23
  Original Simulation        5  26  1990 Yr    3 of   33 Time  21:18:23
  Original Simulation        5  27  1990 Yr    3 of   33 Time  21:18:23
  Original Simulation        5  28  1990 Yr    3 of   33 Time  21:18:24
  Original Simulation        5  29  1990 Yr    3 of   33 Time  21:18:24
  Original Simulation        5  30  1990 Yr    3 of   33 Time  21:18:24
  Original Simulation        5  31  1990 Yr    3 of   33 Time  21:18:24
  Original Simulation        6   1  1990 Yr    3 of   33 Time  21:18:24
  Original Simulation        6   2  1990 Yr    3 of   33 Time  21:18:25
  Original Simulation        6   3  1990 Yr    3 of   33 Time  21:18:25
  Original Simulation        6   4  1990 Yr    3 of   33 Time  21:18:25
  Original Simulation        6   5  1990 Yr    3 of   33 Time  21:18:25
  Original Simulation        6   6  1990 Yr    3 of   33 Time  21:18:25
  Original Simulation        6   7  1990 Yr    3 of   33 Time  21:18:26
  Original Simulation        6   8  1990 Yr    3 of   33 Time  21:18:26
  Original Simulation        6   9  1990 Yr    3 of   33 Time  21:18:26
  Original Simulation        6  10  1990 Yr    3 of   33 Time  21:18:26
  Original Simulation        6  11  1990 Yr    3 of   33 Time  21:18:27
  Original Simulation        6  12  1990 Yr    3 of   33 Time  21:18:27
  Original Simulation        6  13  1990 Yr    3 of   33 Time  21:18:27
  Original Simulation        6  14  1990 Yr    3 of   33 Time  21:18:27
  Original Simulation        6  15  1990 Yr    3 of   33 Time  21:18:27
  Original Simulation        6  16  1990 Yr    3 of   33 Time  21:18:28
  Original Simulation        6  17  1990 Yr    3 of   33 Time  21:18:28
  Original Simulation        6  18  1990 Yr    3 of   33 Time  21:18:28
  Original Simulation        6  19  1990 Yr    3 of   33 Time  21:18:28
  Original Simulation        6  20  1990 Yr    3 of   33 Time  21:18:29
  Original Simulation        6  21  1990 Yr    3 of   33 Time  21:18:29
  Original Simulation        6  22  1990 Yr    3 of   33 Time  21:18:29
  Original Simulation        6  23  1990 Yr    3 of   33 Time  21:18:29
  Original Simulation        6  24  1990 Yr    3 of   33 Time  21:18:29
  Original Simulation        6  25  1990 Yr    3 of   33 Time  21:18:30
  Original Simulation        6  26  1990 Yr    3 of   33 Time  21:18:30
  Original Simulation        6  27  1990 Yr    3 of   33 Time  21:18:30
  Original Simulation        6  28  1990 Yr    3 of   33 Time  21:18:30
  Original Simulation        6  29  1990 Yr    3 of   33 Time  21:18:31
  Original Simulation        6  30  1990 Yr    3 of   33 Time  21:18:31
  Original Simulation        7   1  1990 Yr    3 of   33 Time  21:18:31
  Original Simulation        7   2  1990 Yr    3 of   33 Time  21:18:31
  Original Simulation        7   3  1990 Yr    3 of   33 Time  21:18:31
  Original Simulation        7   4  1990 Yr    3 of   33 Time  21:18:32
  Original Simulation        7   5  1990 Yr    3 of   33 Time  21:18:32
  Original Simulation        7   6  1990 Yr    3 of   33 Time  21:18:32
  Original Simulation        7   7  1990 Yr    3 of   33 Time  21:18:32
  Original Simulation        7   8  1990 Yr    3 of   33 Time  21:18:33
  Original Simulation        7   9  1990 Yr    3 of   33 Time  21:18:33
  Original Simulation        7  10  1990 Yr    3 of   33 Time  21:18:33
  Original Simulation        7  11  1990 Yr    3 of   33 Time  21:18:33
  Original Simulation        7  12  1990 Yr    3 of   33 Time  21:18:33
  Original Simulation        7  13  1990 Yr    3 of   33 Time  21:18:34
  Original Simulation        7  14  1990 Yr    3 of   33 Time  21:18:34
  Original Simulation        7  15  1990 Yr    3 of   33 Time  21:18:34
  Original Simulation        7  16  1990 Yr    3 of   33 Time  21:18:34
  Original Simulation        7  17  1990 Yr    3 of   33 Time  21:18:35
  Original Simulation        7  18  1990 Yr    3 of   33 Time  21:18:35
  Original Simulation        7  19  1990 Yr    3 of   33 Time  21:18:35
  Original Simulation        7  20  1990 Yr    3 of   33 Time  21:18:35
  Original Simulation        7  21  1990 Yr    3 of   33 Time  21:18:35
  Original Simulation        7  22  1990 Yr    3 of   33 Time  21:18:36
  Original Simulation        7  23  1990 Yr    3 of   33 Time  21:18:36
  Original Simulation        7  24  1990 Yr    3 of   33 Time  21:18:36
  Original Simulation        7  25  1990 Yr    3 of   33 Time  21:18:36
  Original Simulation        7  26  1990 Yr    3 of   33 Time  21:18:37
  Original Simulation        7  27  1990 Yr    3 of   33 Time  21:18:37
  Original Simulation        7  28  1990 Yr    3 of   33 Time  21:18:37
  Original Simulation        7  29  1990 Yr    3 of   33 Time  21:18:37
  Original Simulation        7  30  1990 Yr    3 of   33 Time  21:18:37
  Original Simulation        7  31  1990 Yr    3 of   33 Time  21:18:38
  Original Simulation        8   1  1990 Yr    3 of   33 Time  21:18:38
  Original Simulation        8   2  1990 Yr    3 of   33 Time  21:18:38
  Original Simulation        8   3  1990 Yr    3 of   33 Time  21:18:38
  Original Simulation        8   4  1990 Yr    3 of   33 Time  21:18:38
  Original Simulation        8   5  1990 Yr    3 of   33 Time  21:18:39
  Original Simulation        8   6  1990 Yr    3 of   33 Time  21:18:39
  Original Simulation        8   7  1990 Yr    3 of   33 Time  21:18:39
  Original Simulation        8   8  1990 Yr    3 of   33 Time  21:18:39
  Original Simulation        8   9  1990 Yr    3 of   33 Time  21:18:39
  Original Simulation        8  10  1990 Yr    3 of   33 Time  21:18:40
  Original Simulation        8  11  1990 Yr    3 of   33 Time  21:18:40
  Original Simulation        8  12  1990 Yr    3 of   33 Time  21:18:40
  Original Simulation        8  13  1990 Yr    3 of   33 Time  21:18:40
  Original Simulation        8  14  1990 Yr    3 of   33 Time  21:18:40
  Original Simulation        8  15  1990 Yr    3 of   33 Time  21:18:41
  Original Simulation        8  16  1990 Yr    3 of   33 Time  21:18:41
  Original Simulation        8  17  1990 Yr    3 of   33 Time  21:18:41
  Original Simulation        8  18  1990 Yr    3 of   33 Time  21:18:41
  Original Simulation        8  19  1990 Yr    3 of   33 Time  21:18:41
  Original Simulation        8  20  1990 Yr    3 of   33 Time  21:18:42
  Original Simulation        8  21  1990 Yr    3 of   33 Time  21:18:42
  Original Simulation        8  22  1990 Yr    3 of   33 Time  21:18:42
  Original Simulation        8  23  1990 Yr    3 of   33 Time  21:18:42
  Original Simulation        8  24  1990 Yr    3 of   33 Time  21:18:42
  Original Simulation        8  25  1990 Yr    3 of   33 Time  21:18:43
  Original Simulation        8  26  1990 Yr    3 of   33 Time  21:18:43
  Original Simulation        8  27  1990 Yr    3 of   33 Time  21:18:43
  Original Simulation        8  28  1990 Yr    3 of   33 Time  21:18:43
  Original Simulation        8  29  1990 Yr    3 of   33 Time  21:18:43
  Original Simulation        8  30  1990 Yr    3 of   33 Time  21:18:44
  Original Simulation        8  31  1990 Yr    3 of   33 Time  21:18:44
  Original Simulation        9   1  1990 Yr    3 of   33 Time  21:18:44
  Original Simulation        9   2  1990 Yr    3 of   33 Time  21:18:44
  Original Simulation        9   3  1990 Yr    3 of   33 Time  21:18:44
  Original Simulation        9   4  1990 Yr    3 of   33 Time  21:18:45
  Original Simulation        9   5  1990 Yr    3 of   33 Time  21:18:45
  Original Simulation        9   6  1990 Yr    3 of   33 Time  21:18:45
  Original Simulation        9   7  1990 Yr    3 of   33 Time  21:18:45
  Original Simulation        9   8  1990 Yr    3 of   33 Time  21:18:45
  Original Simulation        9   9  1990 Yr    3 of   33 Time  21:18:46
  Original Simulation        9  10  1990 Yr    3 of   33 Time  21:18:46
  Original Simulation        9  11  1990 Yr    3 of   33 Time  21:18:46
  Original Simulation        9  12  1990 Yr    3 of   33 Time  21:18:46
  Original Simulation        9  13  1990 Yr    3 of   33 Time  21:18:46
  Original Simulation        9  14  1990 Yr    3 of   33 Time  21:18:47
  Original Simulation        9  15  1990 Yr    3 of   33 Time  21:18:47
  Original Simulation        9  16  1990 Yr    3 of   33 Time  21:18:47
  Original Simulation        9  17  1990 Yr    3 of   33 Time  21:18:47
  Original Simulation        9  18  1990 Yr    3 of   33 Time  21:18:47
  Original Simulation        9  19  1990 Yr    3 of   33 Time  21:18:48
  Original Simulation        9  20  1990 Yr    3 of   33 Time  21:18:48
  Original Simulation        9  21  1990 Yr    3 of   33 Time  21:18:48
  Original Simulation        9  22  1990 Yr    3 of   33 Time  21:18:48
  Original Simulation        9  23  1990 Yr    3 of   33 Time  21:18:48
  Original Simulation        9  24  1990 Yr    3 of   33 Time  21:18:49
  Original Simulation        9  25  1990 Yr    3 of   33 Time  21:18:49
  Original Simulation        9  26  1990 Yr    3 of   33 Time  21:18:49
  Original Simulation        9  27  1990 Yr    3 of   33 Time  21:18:49
  Original Simulation        9  28  1990 Yr    3 of   33 Time  21:18:49
  Original Simulation        9  29  1990 Yr    3 of   33 Time  21:18:50
  Original Simulation        9  30  1990 Yr    3 of   33 Time  21:18:50
  Original Simulation       10   1  1990 Yr    3 of   33 Time  21:18:50
  Original Simulation       10   2  1990 Yr    3 of   33 Time  21:18:50
  Original Simulation       10   3  1990 Yr    3 of   33 Time  21:18:51
  Original Simulation       10   4  1990 Yr    3 of   33 Time  21:18:51
  Original Simulation       10   5  1990 Yr    3 of   33 Time  21:18:51
  Original Simulation       10   6  1990 Yr    3 of   33 Time  21:18:51
  Original Simulation       10   7  1990 Yr    3 of   33 Time  21:18:51
  Original Simulation       10   8  1990 Yr    3 of   33 Time  21:18:52
  Original Simulation       10   9  1990 Yr    3 of   33 Time  21:18:52
  Original Simulation       10  10  1990 Yr    3 of   33 Time  21:18:52
  Original Simulation       10  11  1990 Yr    3 of   33 Time  21:18:52
  Original Simulation       10  12  1990 Yr    3 of   33 Time  21:18:52
  Original Simulation       10  13  1990 Yr    3 of   33 Time  21:18:53
  Original Simulation       10  14  1990 Yr    3 of   33 Time  21:18:53
  Original Simulation       10  15  1990 Yr    3 of   33 Time  21:18:53
  Original Simulation       10  16  1990 Yr    3 of   33 Time  21:18:53
  Original Simulation       10  17  1990 Yr    3 of   33 Time  21:18:53
  Original Simulation       10  18  1990 Yr    3 of   33 Time  21:18:54
  Original Simulation       10  19  1990 Yr    3 of   33 Time  21:18:54
  Original Simulation       10  20  1990 Yr    3 of   33 Time  21:18:54
  Original Simulation       10  21  1990 Yr    3 of   33 Time  21:18:54
  Original Simulation       10  22  1990 Yr    3 of   33 Time  21:18:54
  Original Simulation       10  23  1990 Yr    3 of   33 Time  21:18:55
  Original Simulation       10  24  1990 Yr    3 of   33 Time  21:18:55
  Original Simulation       10  25  1990 Yr    3 of   33 Time  21:18:55
  Original Simulation       10  26  1990 Yr    3 of   33 Time  21:18:55
  Original Simulation       10  27  1990 Yr    3 of   33 Time  21:18:55
  Original Simulation       10  28  1990 Yr    3 of   33 Time  21:18:56
  Original Simulation       10  29  1990 Yr    3 of   33 Time  21:18:56
  Original Simulation       10  30  1990 Yr    3 of   33 Time  21:18:56
  Original Simulation       10  31  1990 Yr    3 of   33 Time  21:18:56
  Original Simulation       11   1  1990 Yr    3 of   33 Time  21:18:56
  Original Simulation       11   2  1990 Yr    3 of   33 Time  21:18:57
  Original Simulation       11   3  1990 Yr    3 of   33 Time  21:18:57
  Original Simulation       11   4  1990 Yr    3 of   33 Time  21:18:57
  Original Simulation       11   5  1990 Yr    3 of   33 Time  21:18:57
  Original Simulation       11   6  1990 Yr    3 of   33 Time  21:18:57
  Original Simulation       11   7  1990 Yr    3 of   33 Time  21:18:58
  Original Simulation       11   8  1990 Yr    3 of   33 Time  21:18:58
  Original Simulation       11   9  1990 Yr    3 of   33 Time  21:18:58
  Original Simulation       11  10  1990 Yr    3 of   33 Time  21:18:58
  Original Simulation       11  11  1990 Yr    3 of   33 Time  21:18:58
  Original Simulation       11  12  1990 Yr    3 of   33 Time  21:18:59
  Original Simulation       11  13  1990 Yr    3 of   33 Time  21:18:59
  Original Simulation       11  14  1990 Yr    3 of   33 Time  21:18:59
  Original Simulation       11  15  1990 Yr    3 of   33 Time  21:18:59
  Original Simulation       11  16  1990 Yr    3 of   33 Time  21:18:59
  Original Simulation       11  17  1990 Yr    3 of   33 Time  21:19: 0
  Original Simulation       11  18  1990 Yr    3 of   33 Time  21:19: 0
  Original Simulation       11  19  1990 Yr    3 of   33 Time  21:19: 0
  Original Simulation       11  20  1990 Yr    3 of   33 Time  21:19: 0
  Original Simulation       11  21  1990 Yr    3 of   33 Time  21:19: 0
  Original Simulation       11  22  1990 Yr    3 of   33 Time  21:19: 1
  Original Simulation       11  23  1990 Yr    3 of   33 Time  21:19: 1
  Original Simulation       11  24  1990 Yr    3 of   33 Time  21:19: 1
  Original Simulation       11  25  1990 Yr    3 of   33 Time  21:19: 1
  Original Simulation       11  26  1990 Yr    3 of   33 Time  21:19: 2
  Original Simulation       11  27  1990 Yr    3 of   33 Time  21:19: 2
  Original Simulation       11  28  1990 Yr    3 of   33 Time  21:19: 2
  Original Simulation       11  29  1990 Yr    3 of   33 Time  21:19: 2
  Original Simulation       11  30  1990 Yr    3 of   33 Time  21:19: 2
  Original Simulation       12   1  1990 Yr    3 of   33 Time  21:19: 3
  Original Simulation       12   2  1990 Yr    3 of   33 Time  21:19: 3
  Original Simulation       12   3  1990 Yr    3 of   33 Time  21:19: 3
  Original Simulation       12   4  1990 Yr    3 of   33 Time  21:19: 3
  Original Simulation       12   5  1990 Yr    3 of   33 Time  21:19: 3
  Original Simulation       12   6  1990 Yr    3 of   33 Time  21:19: 4
  Original Simulation       12   7  1990 Yr    3 of   33 Time  21:19: 4
  Original Simulation       12   8  1990 Yr    3 of   33 Time  21:19: 4
  Original Simulation       12   9  1990 Yr    3 of   33 Time  21:19: 4
  Original Simulation       12  10  1990 Yr    3 of   33 Time  21:19: 4
  Original Simulation       12  11  1990 Yr    3 of   33 Time  21:19: 5
  Original Simulation       12  12  1990 Yr    3 of   33 Time  21:19: 5
  Original Simulation       12  13  1990 Yr    3 of   33 Time  21:19: 5
  Original Simulation       12  14  1990 Yr    3 of   33 Time  21:19: 5
  Original Simulation       12  15  1990 Yr    3 of   33 Time  21:19: 5
  Original Simulation       12  16  1990 Yr    3 of   33 Time  21:19: 5
  Original Simulation       12  17  1990 Yr    3 of   33 Time  21:19: 6
  Original Simulation       12  18  1990 Yr    3 of   33 Time  21:19: 6
  Original Simulation       12  19  1990 Yr    3 of   33 Time  21:19: 6
  Original Simulation       12  20  1990 Yr    3 of   33 Time  21:19: 6
  Original Simulation       12  21  1990 Yr    3 of   33 Time  21:19: 6
  Original Simulation       12  22  1990 Yr    3 of   33 Time  21:19: 7
  Original Simulation       12  23  1990 Yr    3 of   33 Time  21:19: 7
  Original Simulation       12  24  1990 Yr    3 of   33 Time  21:19: 7
  Original Simulation       12  25  1990 Yr    3 of   33 Time  21:19: 7
  Original Simulation       12  26  1990 Yr    3 of   33 Time  21:19: 7
  Original Simulation       12  27  1990 Yr    3 of   33 Time  21:19: 8
  Original Simulation       12  28  1990 Yr    3 of   33 Time  21:19: 8
  Original Simulation       12  29  1990 Yr    3 of   33 Time  21:19: 8
  Original Simulation       12  30  1990 Yr    3 of   33 Time  21:19: 8
  Original Simulation       12  31  1990 Yr    3 of   33 Time  21:19: 8
  Original Simulation        1   1  1991 Yr    4 of   33 Time  21:19: 9
  Original Simulation        1   2  1991 Yr    4 of   33 Time  21:19: 9
  Original Simulation        1   3  1991 Yr    4 of   33 Time  21:19: 9
  Original Simulation        1   4  1991 Yr    4 of   33 Time  21:19: 9
  Original Simulation        1   5  1991 Yr    4 of   33 Time  21:19:10
  Original Simulation        1   6  1991 Yr    4 of   33 Time  21:19:10
[...]
  Original Simulation        3  31  2020 Yr   33 of   33 Time  21:57:45
  Original Simulation        4   1  2020 Yr   33 of   33 Time  21:57:45
  Original Simulation        4   2  2020 Yr   33 of   33 Time  21:57:46
  Original Simulation        4   3  2020 Yr   33 of   33 Time  21:57:46
  Original Simulation        4   4  2020 Yr   33 of   33 Time  21:57:46
  Original Simulation        4   5  2020 Yr   33 of   33 Time  21:57:46
  Original Simulation        4   6  2020 Yr   33 of   33 Time  21:57:47
  Original Simulation        4   7  2020 Yr   33 of   33 Time  21:57:47
  Original Simulation        4   8  2020 Yr   33 of   33 Time  21:57:47
  Original Simulation        4   9  2020 Yr   33 of   33 Time  21:57:47
  Original Simulation        4  10  2020 Yr   33 of   33 Time  21:57:47
  Original Simulation        4  11  2020 Yr   33 of   33 Time  21:57:48
  Original Simulation        4  12  2020 Yr   33 of   33 Time  21:57:48
  Original Simulation        4  13  2020 Yr   33 of   33 Time  21:57:48
  Original Simulation        4  14  2020 Yr   33 of   33 Time  21:57:48
  Original Simulation        4  15  2020 Yr   33 of   33 Time  21:57:48
  Original Simulation        4  16  2020 Yr   33 of   33 Time  21:57:49
  Original Simulation        4  17  2020 Yr   33 of   33 Time  21:57:49
  Original Simulation        4  18  2020 Yr   33 of   33 Time  21:57:49
  Original Simulation        4  19  2020 Yr   33 of   33 Time  21:57:49
  Original Simulation        4  20  2020 Yr   33 of   33 Time  21:57:49
  Original Simulation        4  21  2020 Yr   33 of   33 Time  21:57:50
  Original Simulation        4  22  2020 Yr   33 of   33 Time  21:57:50
  Original Simulation        4  23  2020 Yr   33 of   33 Time  21:57:50
  Original Simulation        4  24  2020 Yr   33 of   33 Time  21:57:50
  Original Simulation        4  25  2020 Yr   33 of   33 Time  21:57:51
  Original Simulation        4  26  2020 Yr   33 of   33 Time  21:57:51
  Original Simulation        4  27  2020 Yr   33 of   33 Time  21:57:51
  Original Simulation        4  28  2020 Yr   33 of   33 Time  21:57:51
  Original Simulation        4  29  2020 Yr   33 of   33 Time  21:57:51
  Original Simulation        4  30  2020 Yr   33 of   33 Time  21:57:52
  Original Simulation        5   1  2020 Yr   33 of   33 Time  21:57:52
  Original Simulation        5   2  2020 Yr   33 of   33 Time  21:57:52
  Original Simulation        5   3  2020 Yr   33 of   33 Time  21:57:52
  Original Simulation        5   4  2020 Yr   33 of   33 Time  21:57:52
  Original Simulation        5   5  2020 Yr   33 of   33 Time  21:57:53
  Original Simulation        5   6  2020 Yr   33 of   33 Time  21:57:53
  Original Simulation        5   7  2020 Yr   33 of   33 Time  21:57:53
  Original Simulation        5   8  2020 Yr   33 of   33 Time  21:57:53
  Original Simulation        5   9  2020 Yr   33 of   33 Time  21:57:53
  Original Simulation        5  10  2020 Yr   33 of   33 Time  21:57:54
  Original Simulation        5  11  2020 Yr   33 of   33 Time  21:57:54
  Original Simulation        5  12  2020 Yr   33 of   33 Time  21:57:54
  Original Simulation        5  13  2020 Yr   33 of   33 Time  21:57:54
  Original Simulation        5  14  2020 Yr   33 of   33 Time  21:57:55
  Original Simulation        5  15  2020 Yr   33 of   33 Time  21:57:55
  Original Simulation        5  16  2020 Yr   33 of   33 Time  21:57:55
  Original Simulation        5  17  2020 Yr   33 of   33 Time  21:57:55
  Original Simulation        5  18  2020 Yr   33 of   33 Time  21:57:55
  Original Simulation        5  19  2020 Yr   33 of   33 Time  21:57:56
  Original Simulation        5  20  2020 Yr   33 of   33 Time  21:57:56
  Original Simulation        5  21  2020 Yr   33 of   33 Time  21:57:56
  Original Simulation        5  22  2020 Yr   33 of   33 Time  21:57:56
  Original Simulation        5  23  2020 Yr   33 of   33 Time  21:57:56
  Original Simulation        5  24  2020 Yr   33 of   33 Time  21:57:57
  Original Simulation        5  25  2020 Yr   33 of   33 Time  21:57:57
  Original Simulation        5  26  2020 Yr   33 of   33 Time  21:57:57
  Original Simulation        5  27  2020 Yr   33 of   33 Time  21:57:57
  Original Simulation        5  28  2020 Yr   33 of   33 Time  21:57:57
  Original Simulation        5  29  2020 Yr   33 of   33 Time  21:57:58
  Original Simulation        5  30  2020 Yr   33 of   33 Time  21:57:58
  Original Simulation        5  31  2020 Yr   33 of   33 Time  21:57:58
  Original Simulation        6   1  2020 Yr   33 of   33 Time  21:57:58
  Original Simulation        6   2  2020 Yr   33 of   33 Time  21:57:59
  Original Simulation        6   3  2020 Yr   33 of   33 Time  21:57:59
  Original Simulation        6   4  2020 Yr   33 of   33 Time  21:57:59
  Original Simulation        6   5  2020 Yr   33 of   33 Time  21:57:59
  Original Simulation        6   6  2020 Yr   33 of   33 Time  21:57:59
  Original Simulation        6   7  2020 Yr   33 of   33 Time  21:58: 0
  Original Simulation        6   8  2020 Yr   33 of   33 Time  21:58: 0
  Original Simulation        6   9  2020 Yr   33 of   33 Time  21:58: 0
  Original Simulation        6  10  2020 Yr   33 of   33 Time  21:58: 0
  Original Simulation        6  11  2020 Yr   33 of   33 Time  21:58: 0
  Original Simulation        6  12  2020 Yr   33 of   33 Time  21:58: 1
  Original Simulation        6  13  2020 Yr   33 of   33 Time  21:58: 1
  Original Simulation        6  14  2020 Yr   33 of   33 Time  21:58: 1
  Original Simulation        6  15  2020 Yr   33 of   33 Time  21:58: 1
  Original Simulation        6  16  2020 Yr   33 of   33 Time  21:58: 2
  Original Simulation        6  17  2020 Yr   33 of   33 Time  21:58: 2
  Original Simulation        6  18  2020 Yr   33 of   33 Time  21:58: 2
  Original Simulation        6  19  2020 Yr   33 of   33 Time  21:58: 2
  Original Simulation        6  20  2020 Yr   33 of   33 Time  21:58: 2
  Original Simulation        6  21  2020 Yr   33 of   33 Time  21:58: 3
  Original Simulation        6  22  2020 Yr   33 of   33 Time  21:58: 3
  Original Simulation        6  23  2020 Yr   33 of   33 Time  21:58: 3
  Original Simulation        6  24  2020 Yr   33 of   33 Time  21:58: 3
  Original Simulation        6  25  2020 Yr   33 of   33 Time  21:58: 3
  Original Simulation        6  26  2020 Yr   33 of   33 Time  21:58: 4
  Original Simulation        6  27  2020 Yr   33 of   33 Time  21:58: 4
  Original Simulation        6  28  2020 Yr   33 of   33 Time  21:58: 4
  Original Simulation        6  29  2020 Yr   33 of   33 Time  21:58: 4
  Original Simulation        6  30  2020 Yr   33 of   33 Time  21:58: 4
  Original Simulation        7   1  2020 Yr   33 of   33 Time  21:58: 5
  Original Simulation        7   2  2020 Yr   33 of   33 Time  21:58: 5
  Original Simulation        7   3  2020 Yr   33 of   33 Time  21:58: 5
  Original Simulation        7   4  2020 Yr   33 of   33 Time  21:58: 5
  Original Simulation        7   5  2020 Yr   33 of   33 Time  21:58: 6
  Original Simulation        7   6  2020 Yr   33 of   33 Time  21:58: 6
  Original Simulation        7   7  2020 Yr   33 of   33 Time  21:58: 6
  Original Simulation        7   8  2020 Yr   33 of   33 Time  21:58: 6
  Original Simulation        7   9  2020 Yr   33 of   33 Time  21:58: 6
  Original Simulation        7  10  2020 Yr   33 of   33 Time  21:58: 7
  Original Simulation        7  11  2020 Yr   33 of   33 Time  21:58: 7
  Original Simulation        7  12  2020 Yr   33 of   33 Time  21:58: 7
  Original Simulation        7  13  2020 Yr   33 of   33 Time  21:58: 7
  Original Simulation        7  14  2020 Yr   33 of   33 Time  21:58: 7
  Original Simulation        7  15  2020 Yr   33 of   33 Time  21:58: 8
  Original Simulation        7  16  2020 Yr   33 of   33 Time  21:58: 8
  Original Simulation        7  17  2020 Yr   33 of   33 Time  21:58: 8
  Original Simulation        7  18  2020 Yr   33 of   33 Time  21:58: 8
  Original Simulation        7  19  2020 Yr   33 of   33 Time  21:58: 9
  Original Simulation        7  20  2020 Yr   33 of   33 Time  21:58: 9
  Original Simulation        7  21  2020 Yr   33 of   33 Time  21:58: 9
  Original Simulation        7  22  2020 Yr   33 of   33 Time  21:58: 9
  Original Simulation        7  23  2020 Yr   33 of   33 Time  21:58: 9
  Original Simulation        7  24  2020 Yr   33 of   33 Time  21:58:10
  Original Simulation        7  25  2020 Yr   33 of   33 Time  21:58:10
  Original Simulation        7  26  2020 Yr   33 of   33 Time  21:58:10
  Original Simulation        7  27  2020 Yr   33 of   33 Time  21:58:10
  Original Simulation        7  28  2020 Yr   33 of   33 Time  21:58:10
  Original Simulation        7  29  2020 Yr   33 of   33 Time  21:58:11
  Original Simulation        7  30  2020 Yr   33 of   33 Time  21:58:11
  Original Simulation        7  31  2020 Yr   33 of   33 Time  21:58:11
  Original Simulation        8   1  2020 Yr   33 of   33 Time  21:58:11
  Original Simulation        8   2  2020 Yr   33 of   33 Time  21:58:11
  Original Simulation        8   3  2020 Yr   33 of   33 Time  21:58:12
  Original Simulation        8   4  2020 Yr   33 of   33 Time  21:58:12
  Original Simulation        8   5  2020 Yr   33 of   33 Time  21:58:12
  Original Simulation        8   6  2020 Yr   33 of   33 Time  21:58:12
  Original Simulation        8   7  2020 Yr   33 of   33 Time  21:58:13
  Original Simulation        8   8  2020 Yr   33 of   33 Time  21:58:13
  Original Simulation        8   9  2020 Yr   33 of   33 Time  21:58:13
  Original Simulation        8  10  2020 Yr   33 of   33 Time  21:58:13
  Original Simulation        8  11  2020 Yr   33 of   33 Time  21:58:13
  Original Simulation        8  12  2020 Yr   33 of   33 Time  21:58:14
  Original Simulation        8  13  2020 Yr   33 of   33 Time  21:58:14
  Original Simulation        8  14  2020 Yr   33 of   33 Time  21:58:14
  Original Simulation        8  15  2020 Yr   33 of   33 Time  21:58:14
  Original Simulation        8  16  2020 Yr   33 of   33 Time  21:58:14
  Original Simulation        8  17  2020 Yr   33 of   33 Time  21:58:15
  Original Simulation        8  18  2020 Yr   33 of   33 Time  21:58:15
  Original Simulation        8  19  2020 Yr   33 of   33 Time  21:58:15
  Original Simulation        8  20  2020 Yr   33 of   33 Time  21:58:15
  Original Simulation        8  21  2020 Yr   33 of   33 Time  21:58:15
  Original Simulation        8  22  2020 Yr   33 of   33 Time  21:58:16
  Original Simulation        8  23  2020 Yr   33 of   33 Time  21:58:16
  Original Simulation        8  24  2020 Yr   33 of   33 Time  21:58:16
  Original Simulation        8  25  2020 Yr   33 of   33 Time  21:58:16
  Original Simulation        8  26  2020 Yr   33 of   33 Time  21:58:16
  Original Simulation        8  27  2020 Yr   33 of   33 Time  21:58:17
  Original Simulation        8  28  2020 Yr   33 of   33 Time  21:58:17
  Original Simulation        8  29  2020 Yr   33 of   33 Time  21:58:17
  Original Simulation        8  30  2020 Yr   33 of   33 Time  21:58:17
  Original Simulation        8  31  2020 Yr   33 of   33 Time  21:58:18
  Original Simulation        9   1  2020 Yr   33 of   33 Time  21:58:18
  Original Simulation        9   2  2020 Yr   33 of   33 Time  21:58:18
  Original Simulation        9   3  2020 Yr   33 of   33 Time  21:58:18
  Original Simulation        9   4  2020 Yr   33 of   33 Time  21:58:18
  Original Simulation        9   5  2020 Yr   33 of   33 Time  21:58:19
  Original Simulation        9   6  2020 Yr   33 of   33 Time  21:58:19
  Original Simulation        9   7  2020 Yr   33 of   33 Time  21:58:19
  Original Simulation        9   8  2020 Yr   33 of   33 Time  21:58:19
  Original Simulation        9   9  2020 Yr   33 of   33 Time  21:58:19
  Original Simulation        9  10  2020 Yr   33 of   33 Time  21:58:20
  Original Simulation        9  11  2020 Yr   33 of   33 Time  21:58:20
  Original Simulation        9  12  2020 Yr   33 of   33 Time  21:58:20
  Original Simulation        9  13  2020 Yr   33 of   33 Time  21:58:20
  Original Simulation        9  14  2020 Yr   33 of   33 Time  21:58:20
  Original Simulation        9  15  2020 Yr   33 of   33 Time  21:58:21
  Original Simulation        9  16  2020 Yr   33 of   33 Time  21:58:21
  Original Simulation        9  17  2020 Yr   33 of   33 Time  21:58:21
  Original Simulation        9  18  2020 Yr   33 of   33 Time  21:58:21
  Original Simulation        9  19  2020 Yr   33 of   33 Time  21:58:22
  Original Simulation        9  20  2020 Yr   33 of   33 Time  21:58:22
  Original Simulation        9  21  2020 Yr   33 of   33 Time  21:58:22
  Original Simulation        9  22  2020 Yr   33 of   33 Time  21:58:22
  Original Simulation        9  23  2020 Yr   33 of   33 Time  21:58:22
  Original Simulation        9  24  2020 Yr   33 of   33 Time  21:58:23
  Original Simulation        9  25  2020 Yr   33 of   33 Time  21:58:23
  Original Simulation        9  26  2020 Yr   33 of   33 Time  21:58:23
  Original Simulation        9  27  2020 Yr   33 of   33 Time  21:58:23
  Original Simulation        9  28  2020 Yr   33 of   33 Time  21:58:23
  Original Simulation        9  29  2020 Yr   33 of   33 Time  21:58:24
  Original Simulation        9  30  2020 Yr   33 of   33 Time  21:58:24
  Original Simulation       10   1  2020 Yr   33 of   33 Time  21:58:24
  Original Simulation       10   2  2020 Yr   33 of   33 Time  21:58:24
  Original Simulation       10   3  2020 Yr   33 of   33 Time  21:58:24
  Original Simulation       10   4  2020 Yr   33 of   33 Time  21:58:25
  Original Simulation       10   5  2020 Yr   33 of   33 Time  21:58:25
  Original Simulation       10   6  2020 Yr   33 of   33 Time  21:58:25
  Original Simulation       10   7  2020 Yr   33 of   33 Time  21:58:25
  Original Simulation       10   8  2020 Yr   33 of   33 Time  21:58:26
  Original Simulation       10   9  2020 Yr   33 of   33 Time  21:58:26
  Original Simulation       10  10  2020 Yr   33 of   33 Time  21:58:26
  Original Simulation       10  11  2020 Yr   33 of   33 Time  21:58:26
  Original Simulation       10  12  2020 Yr   33 of   33 Time  21:58:26
  Original Simulation       10  13  2020 Yr   33 of   33 Time  21:58:27
  Original Simulation       10  14  2020 Yr   33 of   33 Time  21:58:27
  Original Simulation       10  15  2020 Yr   33 of   33 Time  21:58:27
  Original Simulation       10  16  2020 Yr   33 of   33 Time  21:58:27
  Original Simulation       10  17  2020 Yr   33 of   33 Time  21:58:27
  Original Simulation       10  18  2020 Yr   33 of   33 Time  21:58:28
  Original Simulation       10  19  2020 Yr   33 of   33 Time  21:58:28
  Original Simulation       10  20  2020 Yr   33 of   33 Time  21:58:28
  Original Simulation       10  21  2020 Yr   33 of   33 Time  21:58:28
  Original Simulation       10  22  2020 Yr   33 of   33 Time  21:58:28
  Original Simulation       10  23  2020 Yr   33 of   33 Time  21:58:29
  Original Simulation       10  24  2020 Yr   33 of   33 Time  21:58:29
  Original Simulation       10  25  2020 Yr   33 of   33 Time  21:58:29
  Original Simulation       10  26  2020 Yr   33 of   33 Time  21:58:29
  Original Simulation       10  27  2020 Yr   33 of   33 Time  21:58:29
  Original Simulation       10  28  2020 Yr   33 of   33 Time  21:58:30
  Original Simulation       10  29  2020 Yr   33 of   33 Time  21:58:30
  Original Simulation       10  30  2020 Yr   33 of   33 Time  21:58:30
  Original Simulation       10  31  2020 Yr   33 of   33 Time  21:58:30
  Original Simulation       11   1  2020 Yr   33 of   33 Time  21:58:31
  Original Simulation       11   2  2020 Yr   33 of   33 Time  21:58:31
  Original Simulation       11   3  2020 Yr   33 of   33 Time  21:58:31
  Original Simulation       11   4  2020 Yr   33 of   33 Time  21:58:31
  Original Simulation       11   5  2020 Yr   33 of   33 Time  21:58:31
  Original Simulation       11   6  2020 Yr   33 of   33 Time  21:58:32
  Original Simulation       11   7  2020 Yr   33 of   33 Time  21:58:32
  Original Simulation       11   8  2020 Yr   33 of   33 Time  21:58:32
  Original Simulation       11   9  2020 Yr   33 of   33 Time  21:58:32
  Original Simulation       11  10  2020 Yr   33 of   33 Time  21:58:32
  Original Simulation       11  11  2020 Yr   33 of   33 Time  21:58:33
  Original Simulation       11  12  2020 Yr   33 of   33 Time  21:58:33
  Original Simulation       11  13  2020 Yr   33 of   33 Time  21:58:33
  Original Simulation       11  14  2020 Yr   33 of   33 Time  21:58:33
  Original Simulation       11  15  2020 Yr   33 of   33 Time  21:58:33
  Original Simulation       11  16  2020 Yr   33 of   33 Time  21:58:34
  Original Simulation       11  17  2020 Yr   33 of   33 Time  21:58:34
  Original Simulation       11  18  2020 Yr   33 of   33 Time  21:58:34
  Original Simulation       11  19  2020 Yr   33 of   33 Time  21:58:34
  Original Simulation       11  20  2020 Yr   33 of   33 Time  21:58:34
  Original Simulation       11  21  2020 Yr   33 of   33 Time  21:58:35
  Original Simulation       11  22  2020 Yr   33 of   33 Time  21:58:35
  Original Simulation       11  23  2020 Yr   33 of   33 Time  21:58:35
  Original Simulation       11  24  2020 Yr   33 of   33 Time  21:58:35
  Original Simulation       11  25  2020 Yr   33 of   33 Time  21:58:35
  Original Simulation       11  26  2020 Yr   33 of   33 Time  21:58:36
  Original Simulation       11  27  2020 Yr   33 of   33 Time  21:58:36
  Original Simulation       11  28  2020 Yr   33 of   33 Time  21:58:36
  Original Simulation       11  29  2020 Yr   33 of   33 Time  21:58:36
  Original Simulation       11  30  2020 Yr   33 of   33 Time  21:58:37
  Original Simulation       12   1  2020 Yr   33 of   33 Time  21:58:37
  Original Simulation       12   2  2020 Yr   33 of   33 Time  21:58:37
  Original Simulation       12   3  2020 Yr   33 of   33 Time  21:58:37
  Original Simulation       12   4  2020 Yr   33 of   33 Time  21:58:37
  Original Simulation       12   5  2020 Yr   33 of   33 Time  21:58:38
  Original Simulation       12   6  2020 Yr   33 of   33 Time  21:58:38
  Original Simulation       12   7  2020 Yr   33 of   33 Time  21:58:38
  Original Simulation       12   8  2020 Yr   33 of   33 Time  21:58:38
  Original Simulation       12   9  2020 Yr   33 of   33 Time  21:58:38
  Original Simulation       12  10  2020 Yr   33 of   33 Time  21:58:39
  Original Simulation       12  11  2020 Yr   33 of   33 Time  21:58:39
  Original Simulation       12  12  2020 Yr   33 of   33 Time  21:58:39
  Original Simulation       12  13  2020 Yr   33 of   33 Time  21:58:39
  Original Simulation       12  14  2020 Yr   33 of   33 Time  21:58:39
  Original Simulation       12  15  2020 Yr   33 of   33 Time  21:58:40
  Original Simulation       12  16  2020 Yr   33 of   33 Time  21:58:40
  Original Simulation       12  17  2020 Yr   33 of   33 Time  21:58:40
  Original Simulation       12  18  2020 Yr   33 of   33 Time  21:58:40
  Original Simulation       12  19  2020 Yr   33 of   33 Time  21:58:40
  Original Simulation       12  20  2020 Yr   33 of   33 Time  21:58:41
  Original Simulation       12  21  2020 Yr   33 of   33 Time  21:58:41
  Original Simulation       12  22  2020 Yr   33 of   33 Time  21:58:41
  Original Simulation       12  23  2020 Yr   33 of   33 Time  21:58:41
  Original Simulation       12  24  2020 Yr   33 of   33 Time  21:58:41
  Original Simulation       12  25  2020 Yr   33 of   33 Time  21:58:42
  Original Simulation       12  26  2020 Yr   33 of   33 Time  21:58:42
  Original Simulation       12  27  2020 Yr   33 of   33 Time  21:58:42
  Original Simulation       12  28  2020 Yr   33 of   33 Time  21:58:42
  Original Simulation       12  29  2020 Yr   33 of   33 Time  21:58:42
  Original Simulation       12  30  2020 Yr   33 of   33 Time  21:58:43
  Original Simulation       12  31  2020 Yr   33 of   33 Time  21:58:43

 Execution successfully completed 

  Date of Sim  10/29/2024 Time  21:58:44
