 Valicka_data              SWAT+ Jan 11 2024        MODULAR Rev 2024.61.0                                 
                                        zmx       usle_k       sumfc       sumul      usle_p     usle_ls        esco        epco     cn3_swf       perco     latq_co   tiledrain 
 sname           hydgrp                 (mm)                    (mm)        (mm)                                                                                     0=notile;1=tile;
1.0             C                  2000.0000      0.0000    253.2235    475.7549      1.0000      2.0794      0.9500      1.0000      0.0000      0.0500      0.9000           0
1.0             C                  2000.0000      0.0000    253.2235    475.7549      1.0000      1.4072      0.9500      1.0000      0.0000      0.5000      0.9000           0
1.0             C                  2000.0000      0.0000    253.2235    475.7549      1.0000      0.3200      0.9500      1.0000      0.3000      0.5000      0.2000           0
1.0             C                  2000.0000      0.0000    253.2235    475.7549      1.0000      1.7425      0.9500      1.0000      0.0000      0.5000      0.9000           0
1.0             C                  2000.0000      0.0000    253.2235    475.7549      1.0000      0.1602      0.9500      1.0000      0.9500      0.5000      0.0100           0
1.0             C                  2000.0000      0.0000    253.2235    475.7549      1.0000      2.9743      0.9500      1.0000      0.0000      0.0500      0.9000           0
1.0             C                  2000.0000      0.0000    253.2235    475.7549      1.0000      1.5031      0.9500      1.0000      0.0000      0.5000      0.9000           0
1.0             C                  2000.0000      0.0000    253.2235    475.7549      1.0000      2.9440      0.9500      1.0000      0.0000      0.0500      0.9000           0
1.0             C                  2000.0000      0.0000    253.2235    475.7549      1.0000      2.1710      0.9500      1.0000      0.0000      0.0500      0.9000           0
1.0             C                  2000.0000      0.0000    253.2235    475.7549      1.0000      1.2921      0.9500      1.0000      0.0000      0.5000      0.9000           0
1.0             C                  2000.0000      0.0000    253.2235    475.7549      1.0000      0.3641      0.9500      1.0000      0.3000      0.5000      0.2000           0
1.0             C                  2000.0000      0.0000    253.2235    475.7549      1.0000      0.3917      0.9500      1.0000      0.3000      0.5000      0.2000           0
1.0             C                  2000.0000      0.0000    253.2235    475.7549      1.0000      3.4774      0.9500      1.0000      0.0000      0.0500      0.9000           0
1.0             C                  2000.0000      0.0000    253.2235    475.7549      1.0000      0.8469      0.9500      1.0000      0.0000      0.5000      0.9000           0
1.0             C                  2000.0000      0.0000    253.2235    475.7549      1.0000      0.5840      0.9500      1.0000      0.3000      0.5000      0.2000           0
1.0             C                  2000.0000      0.0000    253.2235    475.7549      1.0000      6.2652      0.9500      1.0000      0.0000      0.0500      0.9000           0
1.0             C                  2000.0000      0.0000    253.2235    475.7549      1.0000      3.5266      0.9500      1.0000      0.0000      0.0500      0.9000           0
1.0             C                  2000.0000      0.0000    253.2235    475.7549      0.7500      0.8323      0.9500      1.0000      0.0000      0.5000      0.9000           0
1.0             C                  2000.0000      0.0000    253.2235    475.7549      1.0000      1.2986      0.9500      1.0000      0.0000      0.5000      0.9000           0
1.0             C                  2000.0000      0.0000    253.2235    475.7549      1.0000      1.4654      0.9500      1.0000      0.0000      0.5000      0.9000           0
1.0             C                  2000.0000      0.0000    253.2235    475.7549      1.0000      0.3088      0.9500      1.0000      0.3000      0.5000      0.2000           0
1.0             C                  2000.0000      0.0000    253.2235    475.7549      1.0000      0.2475      0.9500      1.0000      0.3000      0.5000      0.2000           0
1.0             C                  2000.0000      0.0000    253.2235    475.7549      1.0000      0.9031      0.9500      1.0000      0.0000      0.5000      0.9000           0
1.0             C                  2000.0000      0.0000    253.2235    475.7549      1.0000      0.2250      0.9500      1.0000      0.3000      0.5000      0.2000           0
1.0             C                  2000.0000      0.0000    253.2235    475.7549      1.0000      0.1750      0.9500      1.0000      0.9500      0.5000      0.0100           0
1.0             C                  2000.0000      0.0000    253.2235    475.7549      1.0000      0.7220      0.9500      1.0000      0.0000      0.5000      0.9000           0
1.0             C                  2000.0000      0.0000    253.2235    475.7549      1.0000      2.3135      0.9500      1.0000      0.0000      0.0500      0.9000           0
1.0             C                  2000.0000      0.0000    253.2235    475.7549      1.0000      0.3343      0.9500      1.0000      0.3000      0.5000      0.2000           0
1.0             C                  2000.0000      0.0000    253.2235    475.7549      1.0000      0.8336      0.9500      1.0000      0.0000      0.5000      0.9000           0
1.0             C                  2000.0000      0.0000    253.2235    475.7549      1.0000      1.0623      0.9500      1.0000      0.0000      0.5000      0.9000           0
1.0             C                  2000.0000      0.0000    253.2235    475.7549      1.0000      5.9142      0.9500      1.0000      0.0000      0.0500      0.9000           0
1.0             C                  2000.0000      0.0000    253.2235    475.7549      1.0000      1.4319      0.9500      1.0000      0.0000      0.5000      0.9000           0
1.0             C                  2000.0000      0.0000    253.2235    475.7549      1.0000      0.2297      0.9500      1.0000      0.3000      0.5000      0.2000           0
1.0             C                  2000.0000      0.0000    253.2235    475.7549      1.0000      5.0570      0.9500      1.0000      0.0000      0.0500      0.9000           0
1.0             C                  2000.0000      0.0000    253.2235    475.7549      1.0000      9.1798      0.9500      1.0000      0.0000      0.0500      0.9000           0
1.0             C                  2000.0000      0.0000    253.2235    475.7549      1.0000      0.2168      0.9500      1.0000      0.3000      0.5000      0.2000           0
1.0             C                  2000.0000      0.0000    253.2235    475.7549      1.0000      0.1513      0.9500      1.0000      0.9500      0.5000      0.0100           0
1.0             C                  2000.0000      0.0000    253.2235    475.7549      1.0000      0.4189      0.9500      1.0000      0.3000      0.5000      0.2000           0
1.0             C                  2000.0000      0.0000    253.2235    475.7549      1.0000      0.4589      0.9500      1.0000      0.3000      0.5000      0.2000           0
1.0             C                  2000.0000      0.0000    253.2235    475.7549      1.0000      0.2122      0.9500      1.0000      0.3000      0.5000      0.2000           0
1.0             C                  2000.0000      0.0000    253.2235    475.7549      1.0000      4.8795      0.9500      1.0000      0.0000      0.0500      0.9000           0
1.0             C                  2000.0000      0.0000    253.2235    475.7549      1.0000      0.9963      0.9500      1.0000      0.0000      0.5000      0.9000           0
1.0             C                  2000.0000      0.0000    253.2235    475.7549      1.0000      2.0904      0.9500      1.0000      0.0000      0.0500      0.9000           0
1.0             C                  2000.0000      0.0000    253.2235    475.7549      1.0000      2.0343      0.9500      1.0000      0.0000      0.0500      0.9000           0
1.0             C                  2000.0000      0.0000    253.2235    475.7549      1.0000      3.6769      0.9500      1.0000      0.0000      0.0500      0.9000           0
1.0             C                  2000.0000      0.0000    253.2235    475.7549      1.0000      3.6426      0.9500      1.0000      0.0000      0.5000      0.9000           0
1.0             C                  2000.0000      0.0000    253.2235    475.7549      1.0000      0.2029      0.9500      1.0000      0.3000      0.5000      0.2000           0
1.0             C                  2000.0000      0.0000    253.2235    475.7549      1.0000      0.3774      0.9500      1.0000      0.3000      0.5000      0.2000           0
1.0             C                  2000.0000      0.0000    253.2235    475.7549      1.0000      0.1121      0.9500      1.0000      0.9500      0.5000      0.0100           0
1.0             C                  2000.0000      0.0000    253.2235    475.7549      1.0000      0.2095      0.9500      1.0000      0.3000      0.5000      0.2000           0
1.0             C                  2000.0000      0.0000    253.2235    475.7549      1.0000      0.6135      0.9500      1.0000      0.3000      0.5000      0.2000           0
1.0             C                  2000.0000      0.0000    253.2235    475.7549      1.0000      6.2398      0.9500      1.0000      0.0000      0.0500      0.9000           0
1.0             C                  2000.0000      0.0000    253.2235    475.7549      1.0000      4.0930      0.9500      1.0000      0.0000      0.0500      0.9000           0
1.0             C                  2000.0000      0.0000    253.2235    475.7549      1.0000      0.1685      0.9500      1.0000      0.9500      0.5000      0.0100           0
1.0             C                  2000.0000      0.0000    253.2235    475.7549      1.0000      2.0578      0.9500      1.0000      0.0000      0.0500      0.9000           0
1.0             C                  2000.0000      0.0000    253.2235    475.7549      1.0000      2.2681      0.9500      1.0000      0.0000      0.0500      0.9000           0
1.0             C                  2000.0000      0.0000    253.2235    475.7549      1.0000      2.4996      0.9500      1.0000      0.0000      0.0500      0.9000           0
1.0             C                  2000.0000      0.0000    253.2235    475.7549      1.0000      0.5123      0.9500      1.0000      0.3000      0.5000      0.2000           0
1.0             C                  2000.0000      0.0000    253.2235    475.7549      1.0000      0.7300      0.9500      1.0000      0.0000      0.5000      0.9000           0
1.0             C                  2000.0000      0.0000    253.2235    475.7549      1.0000      0.7995      0.9500      1.0000      0.0000      0.5000      0.9000           0
1.0             C                  2000.0000      0.0000    253.2235    475.7549      1.0000      0.9172      0.9500      1.0000      0.0000      0.5000      0.9000           0
1.0             C                  2000.0000      0.0000    253.2235    475.7549      1.0000      0.1666      0.9500      1.0000      0.9500      0.5000      0.0100           0
1.0             C                  2000.0000      0.0000    253.2235    475.7549      1.0000      0.4637      0.9500      1.0000      0.3000      0.5000      0.2000           0
1.0             C                  2000.0000      0.0000    253.2235    475.7549      1.0000      4.7137      0.9500      1.0000      0.0000      0.0500      0.9000           0
1.0             C                  2000.0000      0.0000    253.2235    475.7549      1.0000      0.4768      0.9500      1.0000      0.3000      0.9000      0.2000           0
1.0             C                  2000.0000      0.0000    253.2235    475.7549      1.0000      1.0093      0.9500      1.0000      0.0000      0.5000      0.9000           0
1.0             C                  2000.0000      0.0000    253.2235    475.7549      1.0000      0.2319      0.9500      1.0000      0.3000      0.5000      0.2000           0
1.0             C                  2000.0000      0.0000    253.2235    475.7549      1.0000      0.2150      0.9500      1.0000      0.3000      0.5000      0.2000           0
1.0             C                  2000.0000      0.0000    253.2235    475.7549      1.0000      4.0662      0.9500      1.0000      0.0000      0.5000      0.9000           0
1.0             C                  2000.0000      0.0000    253.2235    475.7549      1.0000      2.3538      0.9500      1.0000      0.0000      0.0500      0.9000           0
1.0             C                  2000.0000      0.0000    253.2235    475.7549      1.0000      1.2504      0.9500      1.0000      0.0000      0.5000      0.9000           0
1.0             C                  2000.0000      0.0000    253.2235    475.7549      1.0000      2.2013      0.9500      1.0000      0.0000      0.0500      0.9000           0
1.0             C                  2000.0000      0.0000    253.2235    475.7549      1.0000      0.7308      0.9500      1.0000      0.0000      0.5000      0.9000           0
1.0             C                  2000.0000      0.0000    253.2235    475.7549      1.0000      0.2886      0.9500      1.0000      0.3000      0.5000      0.2000           0
1.0             C                  2000.0000      0.0000    253.2235    475.7549      1.0000      0.9170      0.9500      1.0000      0.0000      0.5000      0.9000           0
1.0             C                  2000.0000      0.0000    253.2235    475.7549      1.0000      0.5799      0.9500      1.0000      0.3000      0.5000      0.2000           0
1.0             C                  2000.0000      0.0000    253.2235    475.7549      1.0000      0.5059      0.9500      1.0000      0.3000      0.5000      0.2000           0
1.0             C                  2000.0000      0.0000    253.2235    475.7549      1.0000      5.2017      0.9500      1.0000      0.0000      0.0500      0.9000           0
1.0             C                  2000.0000      0.0000    253.2235    475.7549      1.0000      0.2401      0.9500      1.0000      0.3000      0.5000      0.2000           0
1.0             C                  2000.0000      0.0000    253.2235    475.7549      1.0000      1.6438      0.9500      1.0000      0.0000      0.5000      0.9000           0
1.0             C                  2000.0000      0.0000    253.2235    475.7549      1.0000      0.3043      0.9500      1.0000      0.3000      0.5000      0.2000           0
1.0             C                  2000.0000      0.0000    253.2235    475.7549      1.0000      1.1599      0.9500      1.0000      0.0000      0.5000      0.9000           0
1.0             C                  2000.0000      0.0000    253.2235    475.7549      1.0000      0.5536      0.9500      1.0000      0.3000      0.5000      0.2000           0
1.0             C                  2000.0000      0.0000    253.2235    475.7549      1.0000      3.0202      0.9500      1.0000      0.0000      0.0500      0.9000           0
1.0             C                  2000.0000      0.0000    253.2235    475.7549      1.0000      2.9299      0.9500      1.0000      0.0000      0.0500      0.9000           0
1.0             C                  2000.0000      0.0000    253.2235    475.7549      1.0000      2.6594      0.9500      1.0000      0.0000      0.0500      0.9000           0
1.0             C                  2000.0000      0.0000    253.2235    475.7549      1.0000      0.4090      0.9500      1.0000      0.3000      0.5000      0.2000           0
1.0             C                  2000.0000      0.0000    253.2235    475.7549      1.0000      0.8010      0.9500      1.0000      0.0000      0.5000      0.9000           0
1.0             C                  2000.0000      0.0000    253.2235    475.7549      1.0000      6.0116      0.9500      1.0000      0.0000      0.0500      0.9000           0
1.0             C                  2000.0000      0.0000    253.2235    475.7549      1.0000      0.2685      0.9500      1.0000      0.3000      0.5000      0.2000           0
1.0             C                  2000.0000      0.0000    253.2235    475.7549      1.0000      2.0296      0.9500      1.0000      0.0000      0.0500      0.9000           0
1.0             C                  2000.0000      0.0000    253.2235    475.7549      1.0000      2.1738      0.9500      1.0000      0.0000      0.5000      0.9000           0
1.0             C                  2000.0000      0.0000    253.2235    475.7549      1.0000      0.2206      0.9500      1.0000      0.3000      0.5000      0.2000           0
1.0             C                  2000.0000      0.0000    253.2235    475.7549      1.0000      1.8174      0.9500      1.0000      0.0000      0.5000      0.9000           0
1.0             C                  2000.0000      0.0000    253.2235    475.7549      1.0000      0.1197      0.9500      1.0000      0.9500      0.5000      0.0100           0
1.0             C                  2000.0000      0.0000    253.2235    475.7549      1.0000      0.9843      0.9500      1.0000      0.0000      0.5000      0.9000           0
1.0             C                  2000.0000      0.0000    253.2235    475.7549      1.0000      0.1375      0.9500      1.0000      0.9500      0.5000      0.0100           0
1.0             C                  2000.0000      0.0000    253.2235    475.7549      1.0000      0.1456      0.9500      1.0000      0.9500      0.5000      0.0100           0
1.0             C                  2000.0000      0.0000    253.2235    475.7549      1.0000      1.6108      0.9500      1.0000      0.0000      0.5000      0.9000           0
1.0             C                  2000.0000      0.0000    253.2235    475.7549      1.0000      2.1053      0.9500      1.0000      0.0000      0.0500      0.9000           0
1.0             C                  2000.0000      0.0000    253.2235    475.7549      1.0000      2.2670      0.9500      1.0000      0.0000      0.5000      0.9000           0
1.0             C                  2000.0000      0.0000    253.2235    475.7549      1.0000      2.7491      0.9500      1.0000      0.0000      0.5000      0.9000           0
1.0             C                  2000.0000      0.0000    253.2235    475.7549      1.0000      1.8530      0.9500      1.0000      0.0000      0.0500      0.9000           0
1.0             C                  2000.0000      0.0000    253.2235    475.7549      1.0000      0.6498      0.9500      1.0000      0.3000      0.5000      0.2000           0
1.0             C                  2000.0000      0.0000    253.2235    475.7549      1.0000      5.2133      0.9500      1.0000      0.0000      0.0500      0.9000           0
1.0             C                  2000.0000      0.0000    253.2235    475.7549      1.0000      5.9153      0.9500      1.0000      0.0000      0.0500      0.9000           0
1.0             C                  2000.0000      0.0000    253.2235    475.7549      1.0000      7.1325      0.9500      1.0000      0.0000      0.5000      0.9000           0
1.0             C                  2000.0000      0.0000    253.2235    475.7549      1.0000      0.1534      0.9500      1.0000      0.9500      0.5000      0.0100           0
1.0             C                  2000.0000      0.0000    253.2235    475.7549      1.0000      0.3313      0.9500      1.0000      0.3000      0.5000      0.2000           0
1.0             C                  2000.0000      0.0000    253.2235    475.7549      1.0000      0.3081      0.9500      1.0000      0.3000      0.5000      0.2000           0
1.0             C                  2000.0000      0.0000    253.2235    475.7549      1.0000      3.0086      0.9500      1.0000      0.0000      0.0500      0.9000           0
1.0             C                  2000.0000      0.0000    253.2235    475.7549      1.0000      0.5934      0.9500      1.0000      0.3000      0.5000      0.2000           0
1.0             C                  2000.0000      0.0000    253.2235    475.7549      1.0000      0.3446      0.9500      1.0000      0.3000      0.5000      0.2000           0
1.0             C                  2000.0000      0.0000    253.2235    475.7549      1.0000      0.1172      0.9500      1.0000      0.9500      0.9000      0.0100           0
1.0             C                  2000.0000      0.0000    253.2235    475.7549      1.0000      3.2819      0.9500      1.0000      0.0000      0.0500      0.9000           0
1.0             C                  2000.0000      0.0000    253.2235    475.7549      1.0000      0.7669      0.9500      1.0000      0.0000      0.5000      0.9000           0
1.0             C                  2000.0000      0.0000    253.2235    475.7549      1.0000      7.4480      0.9500      1.0000      0.0000      0.0500      0.9000           0
1.0             C                  2000.0000      0.0000    253.2235    475.7549      1.0000      1.5120      0.9500      1.0000      0.0000      0.5000      0.9000           0
1.0             C                  2000.0000      0.0000    253.2235    475.7549      1.0000      0.4767      0.9500      1.0000      0.3000      0.5000      0.2000           0
1.0             C                  2000.0000      0.0000    253.2235    475.7549      1.0000      0.1692      0.9500      1.0000      0.9500      0.5000      0.0100           0
1.0             C                  2000.0000      0.0000    253.2235    475.7549      1.0000      0.2369      0.9500      1.0000      0.3000      0.5000      0.2000           0
1.0             C                  2000.0000      0.0000    253.2235    475.7549      1.0000      0.1873      0.9500      1.0000      0.9500      0.5000      0.0100           0
1.0             C                  2000.0000      0.0000    253.2235    475.7549      1.0000      0.2363      0.9500      1.0000      0.3000      0.5000      0.2000           0
1.0             C                  2000.0000      0.0000    253.2235    475.7549      1.0000      0.3813      0.9500      1.0000      0.3000      0.5000      0.2000           0
1.0             C                  2000.0000      0.0000    253.2235    475.7549      1.0000      0.2360      0.9500      1.0000      0.3000      0.5000      0.2000           0
1.0             C                  2000.0000      0.0000    253.2235    475.7549      1.0000      0.3354      0.9500      1.0000      0.3000      0.5000      0.2000           0
1.0             C                  2000.0000      0.0000    253.2235    475.7549      1.0000      0.5628      0.9500      1.0000      0.3000      0.5000      0.2000           0
1.0             C                  2000.0000      0.0000    253.2235    475.7549      1.0000      0.5437      0.9500      1.0000      0.3000      0.5000      0.2000           0
1.0             C                  2000.0000      0.0000    253.2235    475.7549      1.0000      0.3176      0.9500      1.0000      0.3000      0.5000      0.2000           0
1.0             C                  2000.0000      0.0000    253.2235    475.7549      1.0000      1.3644      0.9500      1.0000      0.0000      0.5000      0.9000           0
1.0             C                  2000.0000      0.0000    253.2235    475.7549      1.0000      0.6360      0.9500      1.0000      0.3000      0.5000      0.2000           0
1.0             C                  2000.0000      0.0000    253.2235    475.7549      1.0000      1.6872      0.9500      1.0000      0.0000      0.5000      0.9000           0
1.0             C                  2000.0000      0.0000    253.2235    475.7549      1.0000      0.3574      0.9500      1.0000      0.3000      0.5000      0.2000           0
1.0             C                  2000.0000      0.0000    253.2235    475.7549      1.0000      0.8140      0.9500      1.0000      0.0000      0.5000      0.9000           0
1.0             C                  2000.0000      0.0000    253.2235    475.7549      1.0000      0.1622      0.9500      1.0000      0.9500      0.5000      0.0100           0
1.0             C                  2000.0000      0.0000    253.2235    475.7549      1.0000      0.2675      0.9500      1.0000      0.3000      0.5000      0.2000           0
1.0             C                  2000.0000      0.0000    253.2235    475.7549      1.0000      0.2446      0.9500      1.0000      0.3000      0.5000      0.2000           0
1.0             C                  2000.0000      0.0000    253.2235    475.7549      1.0000      0.2186      0.9500      1.0000      0.3000      0.5000      0.2000           0
1.0             C                  2000.0000      0.0000    253.2235    475.7549      1.0000      0.5639      0.9500      1.0000      0.3000      0.5000      0.2000           0
1.0             C                  2000.0000      0.0000    253.2235    475.7549      1.0000      5.0347      0.9500      1.0000      0.0000      0.0500      0.9000           0
1.0             C                  2000.0000      0.0000    253.2235    475.7549      1.0000      1.2748      0.9500      1.0000      0.0000      0.5000      0.9000           0
1.0             C                  2000.0000      0.0000    253.2235    475.7549      1.0000      0.8376      0.9500      1.0000      0.0000      0.5000      0.9000           0
1.0             C                  2000.0000      0.0000    253.2235    475.7549      1.0000      4.7922      0.9500      1.0000      0.0000      0.0500      0.9000           0
1.0             C                  2000.0000      0.0000    253.2235    475.7549      1.0000      1.0362      0.9500      1.0000      0.0000      0.5000      0.9000           0
1.0             C                  2000.0000      0.0000    253.2235    475.7549      1.0000      0.2138      0.9500      1.0000      0.3000      0.5000      0.2000           0
1.0             C                  2000.0000      0.0000    253.2235    475.7549      1.0000      0.3702      0.9500      1.0000      0.3000      0.5000      0.2000           0
1.0             C                  2000.0000      0.0000    253.2235    475.7549      1.0000      3.3150      0.9500      1.0000      0.0000      0.0500      0.9000           0
1.0             C                  2000.0000      0.0000    253.2235    475.7549      1.0000      0.4436      0.9500      1.0000      0.3000      0.5000      0.2000           0
1.0             C                  2000.0000      0.0000    253.2235    475.7549      1.0000      2.8654      0.9500      1.0000      0.0000      0.0500      0.9000           0
1.0             C                  2000.0000      0.0000    253.2235    475.7549      1.0000      0.1285      0.9500      1.0000      0.9500      0.5000      0.0100           0
1.0             C                  2000.0000      0.0000    253.2235    475.7549      1.0000      0.1637      0.9500      1.0000      0.9500      0.5000      0.0100           0
1.0             C                  2000.0000      0.0000    253.2235    475.7549      1.0000      7.8417      0.9500      1.0000      0.0000      0.0500      0.9000           0
1.0             C                  2000.0000      0.0000    253.2235    475.7549      1.0000      0.3634      0.9500      1.0000      0.3000      0.5000      0.2000           0
1.0             C                  2000.0000      0.0000    253.2235    475.7549      1.0000      0.3078      0.9500      1.0000      0.3000      0.5000      0.2000           0
1.0             C                  2000.0000      0.0000    253.2235    475.7549      1.0000      0.2685      0.9500      1.0000      0.3000      0.5000      0.2000           0
1.0             C                  2000.0000      0.0000    253.2235    475.7549      1.0000      2.7127      0.9500      1.0000      0.0000      0.0500      0.9000           0
1.0             C                  2000.0000      0.0000    253.2235    475.7549      1.0000      9.7810      0.9500      1.0000      0.0000      0.0500      0.9000           0
1.0             C                  2000.0000      0.0000    253.2235    475.7549      1.0000      5.9882      0.9500      1.0000      0.0000      0.0500      0.9000           0
1.0             C                  2000.0000      0.0000    253.2235    475.7549      1.0000      3.3909      0.9500      1.0000      0.0000      0.0500      0.9000           0
1.0             C                  2000.0000      0.0000    253.2235    475.7549      1.0000      0.2217      0.9500      1.0000      0.3000      0.5000      0.2000           0
1.0             C                  2000.0000      0.0000    253.2235    475.7549      1.0000      5.8417      0.9500      1.0000      0.0000      0.0500      0.9000           0
1.0             C                  2000.0000      0.0000    253.2235    475.7549      1.0000      3.3994      0.9500      1.0000      0.0000      0.0500      0.9000           0
1.0             C                  2000.0000      0.0000    253.2235    475.7549      1.0000      9.6362      0.9500      1.0000      0.0000      0.5000      0.9000           0
1.0             C                  2000.0000      0.0000    253.2235    475.7549      1.0000      0.2903      0.9500      1.0000      0.3000      0.5000      0.2000           0
1.0             C                  2000.0000      0.0000    253.2235    475.7549      1.0000      2.1493      0.9500      1.0000      0.0000      0.0500      0.9000           0
1.0             C                  2000.0000      0.0000    253.2235    475.7549      1.0000      0.7055      0.9500      1.0000      0.0000      0.5000      0.9000           0
1.0             C                  2000.0000      0.0000    253.2235    475.7549      1.0000      7.9182      0.9500      1.0000      0.0000      0.0500      0.9000           0
1.0             C                  2000.0000      0.0000    253.2235    475.7549      1.0000      7.9107      0.9500      1.0000      0.0000      0.0500      0.9000           0
1.0             C                  2000.0000      0.0000    253.2235    475.7549      1.0000      1.6305      0.9500      1.0000      0.0000      0.5000      0.9000           0
1.0             C                  2000.0000      0.0000    253.2235    475.7549      1.0000      2.3647      0.9500      1.0000      0.0000      0.0500      0.9000           0
1.0             C                  2000.0000      0.0000    253.2235    475.7549      1.0000      0.7021      0.9500      1.0000      0.0000      0.5000      0.9000           0
1.0             C                  2000.0000      0.0000    253.2235    475.7549      1.0000      4.8879      0.9500      1.0000      0.0000      0.0500      0.9000           0
1.0             C                  2000.0000      0.0000    253.2235    475.7549      1.0000      5.8071      0.9500      1.0000      0.0000      0.0500      0.9000           0
1.0             C                  2000.0000      0.0000    253.2235    475.7549      1.0000      7.7785      0.9500      1.0000      0.0000      0.0500      0.9000           0
1.0             C                  2000.0000      0.0000    253.2235    475.7549      1.0000      5.8598      0.9500      1.0000      0.0000      0.5000      0.9000           0
1.0             C                  2000.0000      0.0000    253.2235    475.7549      1.0000      6.2434      0.9500      1.0000      0.0000      0.5000      0.9000           0
1.0             C                  2000.0000      0.0000    253.2235    475.7549      1.0000      5.8716      0.9500      1.0000      0.0000      0.0500      0.9000           0
1.0             C                  2000.0000      0.0000    253.2235    475.7549      1.0000      0.2587      0.9500      1.0000      0.3000      0.5000      0.2000           0
1.0             C                  2000.0000      0.0000    253.2235    475.7549      1.0000      0.5349      0.9500      1.0000      0.3000      0.5000      0.2000           0
1.0             C                  2000.0000      0.0000    253.2235    475.7549      1.0000      2.2911      0.9500      1.0000      0.0000      0.0500      0.9000           0
1.0             C                  2000.0000      0.0000    253.2235    475.7549      1.0000      0.3513      0.9500      1.0000      0.3000      0.5000      0.2000           0
1.0             C                  2000.0000      0.0000    253.2235    475.7549      1.0000      6.2547      0.9500      1.0000      0.0000      0.0500      0.9000           0
1.0             C                  2000.0000      0.0000    253.2235    475.7549      1.0000      0.3092      0.9500      1.0000      0.3000      0.5000      0.2000           0
1.0             C                  2000.0000      0.0000    253.2235    475.7549      1.0000      3.1829      0.9500      1.0000      0.0000      0.0500      0.9000           0
1.0             C                  2000.0000      0.0000    253.2235    475.7549      1.0000      0.3530      0.9500      1.0000      0.3000      0.5000      0.2000           0
1.0             C                  2000.0000      0.0000    253.2235    475.7549      1.0000      0.4261      0.9500      1.0000      0.3000      0.5000      0.2000           0
1.0             C                  2000.0000      0.0000    253.2235    475.7549      1.0000      0.7084      0.9500      1.0000      0.0000      0.5000      0.9000           0
1.0             C                  2000.0000      0.0000    253.2235    475.7549      1.0000      8.8113      0.9500      1.0000      0.0000      0.0500      0.9000           0
1.0             C                  2000.0000      0.0000    253.2235    475.7549      1.0000      5.8775      0.9500      1.0000      0.0000      0.0500      0.9000           0
1.0             C                  2000.0000      0.0000    253.2235    475.7549      1.0000      8.3463      0.9500      1.0000      0.0000      0.0500      0.9000           0
1.0             C                  2000.0000      0.0000    253.2235    475.7549      1.0000      1.0376      0.9500      1.0000      0.0000      0.5000      0.9000           0
1.0             C                  2000.0000      0.0000    253.2235    475.7549      1.0000      0.3543      0.9500      1.0000      0.3000      0.5000      0.2000           0
1.0             C                  2000.0000      0.0000    253.2235    475.7549      1.0000      0.3073      0.9500      1.0000      0.3000      0.5000      0.2000           0
1.0             C                  2000.0000      0.0000    253.2235    475.7549      1.0000      4.3690      0.9500      1.0000      0.0000      0.0500      0.9000           0
1.0             C                  2000.0000      0.0000    253.2235    475.7549      1.0000      1.5661      0.9500      1.0000      0.0000      0.5000      0.9000           0
1.0             C                  2000.0000      0.0000    253.2235    475.7549      1.0000      2.8004      0.9500      1.0000      0.0000      0.0500      0.9000           0
1.0             C                  2000.0000      0.0000    253.2235    475.7549      1.0000      0.2871      0.9500      1.0000      0.3000      0.5000      0.2000           0
1.0             C                  2000.0000      0.0000    253.2235    475.7549      1.0000      1.6904      0.9500      1.0000      0.0000      0.5000      0.9000           0
1.0             C                  2000.0000      0.0000    253.2235    475.7549      1.0000      0.7386      0.9500      1.0000      0.0000      0.5000      0.9000           0
1.0             C                  2000.0000      0.0000    253.2235    475.7549      1.0000      0.4426      0.9500      1.0000      0.3000      0.5000      0.2000           0
1.0             C                  2000.0000      0.0000    253.2235    475.7549      1.0000      2.1607      0.9500      1.0000      0.0000      0.0500      0.9000           0
1.0             C                  2000.0000      0.0000    253.2235    475.7549      1.0000      0.4655      0.9500      1.0000      0.3000      0.5000      0.2000           0
1.0             C                  2000.0000      0.0000    253.2235    475.7549      1.0000      3.9341      0.9500      1.0000      0.0000      0.0500      0.9000           0
1.0             C                  2000.0000      0.0000    253.2235    475.7549      1.0000      1.1409      0.9500      1.0000      0.0000      0.5000      0.9000           0
1.0             C                  2000.0000      0.0000    253.2235    475.7549      1.0000      9.4347      0.9500      1.0000      0.0000      0.5000      0.9000           0
1.0             C                  2000.0000      0.0000    253.2235    475.7549      1.0000      2.1928      0.9500      1.0000      0.0000      0.0500      0.9000           0
1.0             C                  2000.0000      0.0000    253.2235    475.7549      1.0000      4.5944      0.9500      1.0000      0.0000      0.0500      0.9000           0
1.0             C                  2000.0000      0.0000    253.2235    475.7549      1.0000      0.6094      0.9500      1.0000      0.3000      0.5000      0.2000           0
1.0             C                  2000.0000      0.0000    253.2235    475.7549      1.0000      0.3804      0.9500      1.0000      0.3000      0.5000      0.2000           0
1.0             C                  2000.0000      0.0000    253.2235    475.7549      1.0000      0.4654      0.9500      1.0000      0.3000      0.5000      0.2000           0
1.0             C                  2000.0000      0.0000    253.2235    475.7549      1.0000      0.1790      0.9500      1.0000      0.9500      0.5000      0.0100           0
1.0             C                  2000.0000      0.0000    253.2235    475.7549      1.0000      1.7852      0.9500      1.0000      0.0000      0.5000      0.9000           0
1.0             C                  2000.0000      0.0000    253.2235    475.7549      1.0000      0.8650      0.9500      1.0000      0.0000      0.5000      0.9000           0
1.0             C                  2000.0000      0.0000    253.2235    475.7549      1.0000      0.4201      0.9500      1.0000      0.3000      0.9000      0.2000           0
1.0             C                  2000.0000      0.0000    253.2235    475.7549      1.0000      2.8959      0.9500      1.0000      0.0000      0.0500      0.9000           0
1.0             C                  2000.0000      0.0000    253.2235    475.7549      1.0000      0.2949      0.9500      1.0000      0.3000      0.5000      0.2000           0
1.0             C                  2000.0000      0.0000    253.2235    475.7549      1.0000      1.1315      0.9500      1.0000      0.0000      0.5000      0.9000           0
1.0             C                  2000.0000      0.0000    253.2235    475.7549      1.0000      0.1560      0.9500      1.0000      0.9500      0.5000      0.0100           0
1.0             C                  2000.0000      0.0000    253.2235    475.7549      1.0000      0.6892      0.9500      1.0000      0.0000      0.5000      0.9000           0
1.0             C                  2000.0000      0.0000    253.2235    475.7549      1.0000      0.6814      0.9500      1.0000      0.0000      0.5000      0.9000           0
1.0             C                  2000.0000      0.0000    253.2235    475.7549      1.0000      1.1369      0.9500      1.0000      0.0000      0.5000      0.9000           0
1.0             C                  2000.0000      0.0000    253.2235    475.7549      1.0000      0.8026      0.9500      1.0000      0.0000      0.5000      0.9000           0
1.0             C                  2000.0000      0.0000    253.2235    475.7549      1.0000      0.6724      0.9500      1.0000      0.3000      0.9000      0.2000           0
1.0             C                  2000.0000      0.0000    253.2235    475.7549      1.0000      0.7164      0.9500      1.0000      0.0000      0.5000      0.9000           0
1.0             C                  2000.0000      0.0000    253.2235    475.7549      1.0000      0.4036      0.9500      1.0000      0.9500      0.9000      0.0100           0
1.0             C                  2000.0000      0.0000    253.2235    475.7549      1.0000      3.1933      0.9500      1.0000      0.0000      0.0500      0.9000           0
1.0             C                  2000.0000      0.0000    253.2235    475.7549      1.0000      1.0089      0.9500      1.0000      0.0000      0.5000      0.9000           0
1.0             C                  2000.0000      0.0000    253.2235    475.7549      1.0000      3.0265      0.9500      1.0000      0.0000      0.0500      0.9000           0
1.0             C                  2000.0000      0.0000    253.2235    475.7549      1.0000      0.3388      0.9500      1.0000      0.3000      0.5000      0.2000           0
1.0             C                  2000.0000      0.0000    253.2235    475.7549      1.0000      1.1388      0.9500      1.0000      0.0000      0.5000      0.9000           0
1.0             C                  2000.0000      0.0000    253.2235    475.7549      1.0000      0.1863      0.9500      1.0000      0.9500      0.5000      0.0100           0
1.0             C                  2000.0000      0.0000    253.2235    475.7549      1.0000      5.2966      0.9500      1.0000      0.0000      0.0500      0.9000           0
1.0             C                  2000.0000      0.0000    253.2235    475.7549      1.0000      1.9447      0.9500      1.0000      0.0000      0.0500      0.9000           0
1.0             C                  2000.0000      0.0000    253.2235    475.7549      1.0000      0.2270      0.9500      1.0000      0.3000      0.5000      0.2000           0
1.0             C                  2000.0000      0.0000    253.2235    475.7549      1.0000      0.4311      0.9500      1.0000      0.3000      0.5000      0.2000           0
1.0             C                  2000.0000      0.0000    253.2235    475.7549      1.0000      1.2784      0.9500      1.0000      0.0000      0.5000      0.9000           0
1.0             C                  2000.0000      0.0000    253.2235    475.7549      1.0000      8.5291      0.9500      1.0000      0.0000      0.0500      0.9000           0
1.0             C                  2000.0000      0.0000    253.2235    475.7549      1.0000      4.8810      0.9500      1.0000      0.0000      0.0500      0.9000           0
1.0             C                  2000.0000      0.0000    253.2235    475.7549      1.0000      3.9268      0.9500      1.0000      0.0000      0.0500      0.9000           0
1.0             C                  2000.0000      0.0000    253.2235    475.7549      1.0000     19.0870      0.9500      1.0000      0.0000      0.0500      0.9000           0
1.0             C                  2000.0000      0.0000    253.2235    475.7549      1.0000      0.2376      0.9500      1.0000      0.3000      0.5000      0.2000           0
1.0             C                  2000.0000      0.0000    253.2235    475.7549      1.0000      3.8461      0.9500      1.0000      0.0000      0.0500      0.9000           0
1.0             C                  2000.0000      0.0000    253.2235    475.7549      1.0000      2.7797      0.9500      1.0000      0.0000      0.0500      0.9000           0
1.0             C                  2000.0000      0.0000    253.2235    475.7549      1.0000      1.8722      0.9500      1.0000      0.0000      0.0500      0.9000           0
1.0             C                  2000.0000      0.0000    253.2235    475.7549      1.0000      1.6457      0.9500      1.0000      0.0000      0.5000      0.9000           0
1.0             C                  2000.0000      0.0000    253.2235    475.7549      1.0000      0.2627      0.9500      1.0000      0.3000      0.5000      0.2000           0
1.0             C                  2000.0000      0.0000    253.2235    475.7549      1.0000      0.5599      0.9500      1.0000      0.3000      0.5000      0.2000           0
1.0             C                  2000.0000      0.0000    253.2235    475.7549      1.0000      0.8114      0.9500      1.0000      0.0000      0.5000      0.9000           0
1.0             C                  2000.0000      0.0000    253.2235    475.7549      1.0000      3.2887      0.9500      1.0000      0.0000      0.5000      0.9000           0
1.0             C                  2000.0000      0.0000    253.2235    475.7549      1.0000      4.3120      0.9500      1.0000      0.0000      0.5000      0.9000           0
1.0             C                  2000.0000      0.0000    253.2235    475.7549      1.0000      4.8675      0.9500      1.0000      0.0000      0.0500      0.9000           0
1.0             C                  2000.0000      0.0000    253.2235    475.7549      1.0000      6.6782      0.9500      1.0000      0.0000      0.0500      0.9000           0
1.0             C                  2000.0000      0.0000    253.2235    475.7549      1.0000      2.1041      0.9500      1.0000      0.0000      0.0500      0.9000           0
1.0             C                  2000.0000      0.0000    253.2235    475.7549      1.0000      0.3405      0.9500      1.0000      0.3000      0.5000      0.2000           0
1.0             C                  2000.0000      0.0000    253.2235    475.7549      1.0000      1.0590      0.9500      1.0000      0.0000      0.5000      0.9000           0
1.0             C                  2000.0000      0.0000    253.2235    475.7549      1.0000      1.9753      0.9500      1.0000      0.0000      0.0500      0.9000           0
1.0             C                  2000.0000      0.0000    253.2235    475.7549      1.0000      2.8951      0.9500      1.0000      0.0000      0.0500      0.9000           0
1.0             C                  2000.0000      0.0000    253.2235    475.7549      1.0000      1.3584      0.9500      1.0000      0.0000      0.5000      0.9000           0
1.0             C                  2000.0000      0.0000    253.2235    475.7549      1.0000      2.9073      0.9500      1.0000      0.0000      0.0500      0.9000           0
1.0             C                  2000.0000      0.0000    253.2235    475.7549      1.0000      1.9349      0.9500      1.0000      0.0000      0.0500      0.9000           0
1.0             C                  2000.0000      0.0000    253.2235    475.7549      1.0000      5.0514      0.9500      1.0000      0.0000      0.0500      0.9000           0
1.0             C                  2000.0000      0.0000    253.2235    475.7549      1.0000      0.5463      0.9500      1.0000      0.3000      0.5000      0.2000           0
1.0             C                  2000.0000      0.0000    253.2235    475.7549      1.0000      4.2156      0.9500      1.0000      0.0000      0.0500      0.9000           0
1.0             C                  2000.0000      0.0000    253.2235    475.7549      1.0000      6.4370      0.9500      1.0000      0.0000      0.0500      0.9000           0
1.0             C                  2000.0000      0.0000    253.2235    475.7549      1.0000      5.5927      0.9500      1.0000      0.0000      0.0500      0.9000           0
1.0             C                  2000.0000      0.0000    253.2235    475.7549      1.0000      3.5480      0.9500      1.0000      0.0000      0.0500      0.9000           0
1.0             C                  2000.0000      0.0000    253.2235    475.7549      1.0000      1.5408      0.9500      1.0000      0.0000      0.5000      0.9000           0
1.0             C                  2000.0000      0.0000    253.2235    475.7549      1.0000      2.0137      0.9500      1.0000      0.0000      0.0500      0.9000           0
1.0             C                  2000.0000      0.0000    253.2235    475.7549      1.0000      0.9156      0.9500      1.0000      0.0000      0.5000      0.9000           0
1.0             C                  2000.0000      0.0000    253.2235    475.7549      1.0000      1.0095      0.9500      1.0000      0.0000      0.5000      0.9000           0
1.0             C                  2000.0000      0.0000    253.2235    475.7549      1.0000      2.8831      0.9500      1.0000      0.0000      0.0500      0.9000           0
1.0             C                  2000.0000      0.0000    253.2235    475.7549      1.0000      0.1664      0.9500      1.0000      0.9500      0.5000      0.0100           0
1.0             C                  2000.0000      0.0000    253.2235    475.7549      1.0000      0.2353      0.9500      1.0000      0.3000      0.5000      0.2000           0
1.0             C                  2000.0000      0.0000    253.2235    475.7549      1.0000      0.1073      0.9500      1.0000      0.9500      0.5000      0.0100           0
1.0             C                  2000.0000      0.0000    253.2235    475.7549      1.0000      2.9222      0.9500      1.0000      0.0000      0.5000      0.9000           0
1.0             C                  2000.0000      0.0000    253.2235    475.7549      1.0000      2.1813      0.9500      1.0000      0.0000      0.0500      0.9000           0
1.0             C                  2000.0000      0.0000    253.2235    475.7549      1.0000      0.1568      0.9500      1.0000      0.9500      0.5000      0.0100           0
1.0             C                  2000.0000      0.0000    253.2235    475.7549      1.0000      0.1596      0.9500      1.0000      0.9500      0.5000      0.0100           0
1.0             C                  2000.0000      0.0000    253.2235    475.7549      1.0000      0.2746      0.9500      1.0000      0.3000      0.5000      0.2000           0
1.0             C                  2000.0000      0.0000    253.2235    475.7549      1.0000      0.6943      0.9500      1.0000      0.0000      0.5000      0.9000           0
1.0             C                  2000.0000      0.0000    253.2235    475.7549      1.0000      0.2206      0.9500      1.0000      0.9500      0.9000      0.0100           0
1.0             C                  2000.0000      0.0000    253.2235    475.7549      1.0000      0.8116      0.9500      1.0000      0.0000      0.5000      0.9000           0
1.0             C                  2000.0000      0.0000    253.2235    475.7549      1.0000      1.0189      0.9500      1.0000      0.0000      0.5000      0.9000           0
1.0             C                  2000.0000      0.0000    253.2235    475.7549      1.0000      0.6077      0.9500      1.0000      0.3000      0.5000      0.2000           0
1.0             C                  2000.0000      0.0000    253.2235    475.7549      1.0000      0.2525      0.9500      1.0000      0.3000      0.5000      0.2000           0
1.0             C                  2000.0000      0.0000    253.2235    475.7549      1.0000      0.4236      0.9500      1.0000      0.3000      0.5000      0.2000           0
1.0             C                  2000.0000      0.0000    253.2235    475.7549      1.0000      0.6717      0.9500      1.0000      0.3000      0.5000      0.2000           0
1.0             C                  2000.0000      0.0000    253.2235    475.7549      1.0000      1.3259      0.9500      1.0000      0.0000      0.5000      0.9000           0
1.0             C                  2000.0000      0.0000    253.2235    475.7549      1.0000      0.7030      0.9500      1.0000      0.0000      0.5000      0.9000           0
1.0             C                  2000.0000      0.0000    253.2235    475.7549      1.0000      0.5173      0.9500      1.0000      0.3000      0.5000      0.2000           0
1.0             C                  2000.0000      0.0000    253.2235    475.7549      1.0000      0.1236      0.9500      1.0000      0.9500      0.5000      0.0100           0
1.0             C                  2000.0000      0.0000    253.2235    475.7549      1.0000      0.2916      0.9500      1.0000      0.3000      0.5000      0.2000           0
1.0             C                  2000.0000      0.0000    253.2235    475.7549      1.0000      0.1366      0.9500      1.0000      0.9500      0.5000      0.0100           0
1.0             C                  2000.0000      0.0000    253.2235    475.7549      1.0000      0.1831      0.9500      1.0000      0.9500      0.5000      0.0100           0
1.0             C                  2000.0000      0.0000    253.2235    475.7549      1.0000      0.8345      0.9500      1.0000      0.0000      0.5000      0.9000           0
1.0             C                  2000.0000      0.0000    253.2235    475.7549      1.0000      1.4723      0.9500      1.0000      0.0000      0.5000      0.9000           0
1.0             C                  2000.0000      0.0000    253.2235    475.7549      1.0000      0.2511      0.9500      1.0000      0.3000      0.5000      0.2000           0
1.0             C                  2000.0000      0.0000    253.2235    475.7549      1.0000      0.2622      0.9500      1.0000      0.3000      0.5000      0.2000           0
1.0             C                  2000.0000      0.0000    253.2235    475.7549      1.0000      0.8275      0.9500      1.0000      0.0000      0.5000      0.9000           0
1.0             C                  2000.0000      0.0000    253.2235    475.7549      1.0000      1.8564      0.9500      1.0000      0.0000      0.0500      0.9000           0
1.0             C                  2000.0000      0.0000    253.2235    475.7549      1.0000      1.4264      0.9500      1.0000      0.0000      0.5000      0.9000           0
1.0             C                  2000.0000      0.0000    253.2235    475.7549      1.0000      2.6213      0.9500      1.0000      0.0000      0.0500      0.9000           0
1.0             C                  2000.0000      0.0000    253.2235    475.7549      1.0000      1.9013      0.9500      1.0000      0.0000      0.0500      0.9000           0
1.0             C                  2000.0000      0.0000    253.2235    475.7549      1.0000      0.4315      0.9500      1.0000      0.3000      0.5000      0.2000           0
1.0             C                  2000.0000      0.0000    253.2235    475.7549      1.0000      4.7227      0.9500      1.0000      0.0000      0.0500      0.9000           0
1.0             C                  2000.0000      0.0000    253.2235    475.7549      1.0000      7.0681      0.9500      1.0000      0.0000      0.5000      0.9000           0
1.0             C                  2000.0000      0.0000    253.2235    475.7549      1.0000      0.2882      0.9500      1.0000      0.3000      0.5000      0.2000           0
1.0             C                  2000.0000      0.0000    253.2235    475.7549      1.0000      2.5752      0.9500      1.0000      0.0000      0.5000      0.9000           0
1.0             C                  2000.0000      0.0000    253.2235    475.7549      1.0000      2.2083      0.9500      1.0000      0.0000      0.0500      0.9000           0
1.0             C                  2000.0000      0.0000    253.2235    475.7549      1.0000      0.1540      0.9500      1.0000      0.9500      0.5000      0.0100           0
1.0             C                  2000.0000      0.0000    253.2235    475.7549      1.0000      1.5051      0.9500      1.0000      0.0000      0.5000      0.9000           0
1.0             C                  2000.0000      0.0000    253.2235    475.7549      1.0000      1.1753      0.9500      1.0000      0.0000      0.5000      0.9000           0
1.0             C                  2000.0000      0.0000    253.2235    475.7549      1.0000      0.2249      0.9500      1.0000      0.3000      0.5000      0.2000           0
1.0             C                  2000.0000      0.0000    253.2235    475.7549      1.0000      1.5264      0.9500      1.0000      0.0000      0.5000      0.9000           0
1.0             C                  2000.0000      0.0000    253.2235    475.7549      1.0000      0.1674      0.9500      1.0000      0.9500      0.5000      0.0100           0
1.0             C                  2000.0000      0.0000    253.2235    475.7549      1.0000      3.0030      0.9500      1.0000      0.0000      0.0500      0.9000           0
1.0             C                  2000.0000      0.0000    253.2235    475.7549      1.0000      0.2525      0.9500      1.0000      0.3000      0.5000      0.2000           0
1.0             C                  2000.0000      0.0000    253.2235    475.7549      1.0000      0.5992      0.9500      1.0000      0.3000      0.5000      0.2000           0
1.0             C                  2000.0000      0.0000    253.2235    475.7549      1.0000      3.9235      0.9500      1.0000      0.0000      0.0500      0.9000           0
1.0             C                  2000.0000      0.0000    253.2235    475.7549      1.0000      0.5738      0.9500      1.0000      0.3000      0.5000      0.2000           0
1.0             C                  2000.0000      0.0000    253.2235    475.7549      1.0000      1.7102      0.9500      1.0000      0.0000      0.5000      0.9000           0
1.0             C                  2000.0000      0.0000    253.2235    475.7549      1.0000      6.8483      0.9500      1.0000      0.0000      0.0500      0.9000           0
1.0             C                  2000.0000      0.0000    253.2235    475.7549      1.0000      0.2795      0.9500      1.0000      0.3000      0.5000      0.2000           0
1.0             C                  2000.0000      0.0000    253.2235    475.7549      1.0000      2.5760      0.9500      1.0000      0.0000      0.0500      0.9000           0
1.0             C                  2000.0000      0.0000    253.2235    475.7549      1.0000      0.1916      0.9500      1.0000      0.9500      0.5000      0.0100           0
1.0             C                  2000.0000      0.0000    253.2235    475.7549      1.0000      1.7732      0.9500      1.0000      0.0000      0.5000      0.9000           0
1.0             C                  2000.0000      0.0000    253.2235    475.7549      1.0000      2.6431      0.9500      1.0000      0.0000      0.0500      0.9000           0
1.0             C                  2000.0000      0.0000    253.2235    475.7549      1.0000      0.1839      0.9500      1.0000      0.9500      0.5000      0.0100           0
1.0             C                  2000.0000      0.0000    253.2235    475.7549      1.0000      1.1645      0.9500      1.0000      0.0000      0.5000      0.9000           0
1.0             C                  2000.0000      0.0000    253.2235    475.7549      1.0000      0.4065      0.9500      1.0000      0.3000      0.5000      0.2000           0
1.0             C                  2000.0000      0.0000    253.2235    475.7549      1.0000      0.2810      0.9500      1.0000      0.3000      0.5000      0.2000           0
1.0             C                  2000.0000      0.0000    253.2235    475.7549      1.0000      0.1295      0.9500      1.0000      0.9500      0.5000      0.0100           0
1.0             C                  2000.0000      0.0000    253.2235    475.7549      1.0000      0.1015      0.9500      1.0000      0.9500      0.5000      0.0100           0
1.0             C                  2000.0000      0.0000    253.2235    475.7549      1.0000      1.1641      0.9500      1.0000      0.0000      0.5000      0.9000           0
1.0             C                  2000.0000      0.0000    253.2235    475.7549      1.0000      0.5330      0.9500      1.0000      0.3000      0.5000      0.2000           0
1.0             C                  2000.0000      0.0000    253.2235    475.7549      1.0000      0.7539      0.9500      1.0000      0.0000      0.5000      0.9000           0
1.0             C                  2000.0000      0.0000    253.2235    475.7549      1.0000      0.6840      0.9500      1.0000      0.0000      0.5000      0.9000           0
1.0             C                  2000.0000      0.0000    253.2235    475.7549      1.0000      1.3122      0.9500      1.0000      0.0000      0.5000      0.9000           0
1.0             C                  2000.0000      0.0000    253.2235    475.7549      1.0000      1.2370      0.9500      1.0000      0.0000      0.5000      0.9000           0
1.0             C                  2000.0000      0.0000    253.2235    475.7549      1.0000      1.4296      0.9500      1.0000      0.0000      0.5000      0.9000           0
1.0             C                  2000.0000      0.0000    253.2235    475.7549      1.0000      0.3543      0.9500      1.0000      0.3000      0.5000      0.2000           0
1.0             C                  2000.0000      0.0000    253.2235    475.7549      1.0000      6.4288      0.9500      1.0000      0.0000      0.0500      0.9000           0
1.0             C                  2000.0000      0.0000    253.2235    475.7549      1.0000      0.3169      0.9500      1.0000      0.3000      0.5000      0.2000           0
1.0             C                  2000.0000      0.0000    253.2235    475.7549      1.0000      2.4903      0.9500      1.0000      0.0000      0.0500      0.9000           0
1.0             C                  2000.0000      0.0000    253.2235    475.7549      1.0000      0.6363      0.9500      1.0000      0.3000      0.5000      0.2000           0
1.0             C                  2000.0000      0.0000    253.2235    475.7549      1.0000      0.8116      0.9500      1.0000      0.0000      0.5000      0.9000           0
1.0             C                  2000.0000      0.0000    253.2235    475.7549      1.0000      0.4729      0.9500      1.0000      0.3000      0.5000      0.2000           0
1.0             C                  2000.0000      0.0000    253.2235    475.7549      1.0000      4.3492      0.9500      1.0000      0.0000      0.0500      0.9000           0
1.0             C                  2000.0000      0.0000    253.2235    475.7549      1.0000      3.0965      0.9500      1.0000      0.0000      0.0500      0.9000           0
1.0             C                  2000.0000      0.0000    253.2235    475.7549      1.0000      0.1959      0.9500      1.0000      0.9500      0.5000      0.0100           0
1.0             C                  2000.0000      0.0000    253.2235    475.7549      1.0000      0.4168      0.9500      1.0000      0.3000      0.5000      0.2000           0
1.0             C                  2000.0000      0.0000    253.2235    475.7549      1.0000     16.2805      0.9500      1.0000      0.0000      0.0500      0.9000           0
1.0             C                  2000.0000      0.0000    253.2235    475.7549      1.0000      0.7266      0.9500      1.0000      0.0000      0.5000      0.9000           0
1.0             C                  2000.0000      0.0000    253.2235    475.7549      1.0000      3.1302      0.9500      1.0000      0.0000      0.0500      0.9000           0
1.0             C                  2000.0000      0.0000    253.2235    475.7549      1.0000      0.8361      0.9500      1.0000      0.0000      0.5000      0.9000           0
1.0             C                  2000.0000      0.0000    253.2235    475.7549      1.0000      0.4597      0.9500      1.0000      0.3000      0.5000      0.2000           0
1.0             C                  2000.0000      0.0000    253.2235    475.7549      1.0000      0.9210      0.9500      1.0000      0.0000      0.5000      0.9000           0
1.0             C                  2000.0000      0.0000    253.2235    475.7549      1.0000      0.9188      0.9500      1.0000      0.0000      0.5000      0.9000           0
1.0             C                  2000.0000      0.0000    253.2235    475.7549      1.0000      0.6319      0.9500      1.0000      0.3000      0.5000      0.2000           0
1.0             C                  2000.0000      0.0000    253.2235    475.7549      1.0000      0.1721      0.9500      1.0000      0.9500      0.5000      0.0100           0
1.0             C                  2000.0000      0.0000    253.2235    475.7549      1.0000      3.7387      0.9500      1.0000      0.0000      0.5000      0.9000           0
1.0             C                  2000.0000      0.0000    253.2235    475.7549      1.0000      3.5799      0.9500      1.0000      0.0000      0.0500      0.9000           0
1.0             C                  2000.0000      0.0000    253.2235    475.7549      1.0000      0.5014      0.9500      1.0000      0.3000      0.5000      0.2000           0
1.0             C                  2000.0000      0.0000    253.2235    475.7549      1.0000      0.3517      0.9500      1.0000      0.9500      0.9000      0.0100           0
1.0             C                  2000.0000      0.0000    253.2235    475.7549      1.0000      0.2379      0.9500      1.0000      0.3000      0.5000      0.2000           0
1.0             C                  2000.0000      0.0000    253.2235    475.7549      1.0000      0.2388      0.9500      1.0000      0.3000      0.5000      0.2000           0
1.0             C                  2000.0000      0.0000    253.2235    475.7549      1.0000      0.2544      0.9500      1.0000      0.3000      0.5000      0.2000           0
1.0             C                  2000.0000      0.0000    253.2235    475.7549      1.0000      0.1337      0.9500      1.0000      0.9500      0.5000      0.0100           0
1.0             C                  2000.0000      0.0000    253.2235    475.7549      1.0000      0.7229      0.9500      1.0000      0.0000      0.5000      0.9000           0
1.0             C                  2000.0000      0.0000    253.2235    475.7549      1.0000      3.4711      0.9500      1.0000      0.0000      0.0500      0.9000           0
1.0             C                  2000.0000      0.0000    253.2235    475.7549      1.0000     10.5870      0.9500      1.0000      0.0000      0.0500      0.9000           0
1.0             C                  2000.0000      0.0000    253.2235    475.7549      1.0000      1.4264      0.9500      1.0000      0.0000      0.5000      0.9000           0
1.0             C                  2000.0000      0.0000    253.2235    475.7549      1.0000     11.7251      0.9500      1.0000      0.0000      0.5000      0.9000           0
1.0             C                  2000.0000      0.0000    253.2235    475.7549      1.0000      0.3373      0.9500      1.0000      0.3000      0.5000      0.2000           0
1.0             C                  2000.0000      0.0000    253.2235    475.7549      1.0000      0.5181      0.9500      1.0000      0.3000      0.5000      0.2000           0
1.0             C                  2000.0000      0.0000    253.2235    475.7549      1.0000      1.6895      0.9500      1.0000      0.0000      0.5000      0.9000           0
1.0             C                  2000.0000      0.0000    253.2235    475.7549      1.0000      2.8732      0.9500      1.0000      0.0000      0.0500      0.9000           0
1.0             C                  2000.0000      0.0000    253.2235    475.7549      1.0000      0.1457      0.9500      1.0000      0.9500      0.5000      0.0100           0
1.0             C                  2000.0000      0.0000    253.2235    475.7549      1.0000      4.4873      0.9500      1.0000      0.0000      0.0500      0.9000           0
1.0             C                  2000.0000      0.0000    253.2235    475.7549      1.0000      2.3368      0.9500      1.0000      0.0000      0.0500      0.9000           0
1.0             C                  2000.0000      0.0000    253.2235    475.7549      1.0000      0.1612      0.9500      1.0000      0.9500      0.5000      0.0100           0
1.0             C                  2000.0000      0.0000    253.2235    475.7549      1.0000      0.1873      0.9500      1.0000      0.9500      0.5000      0.0100           0
1.0             C                  2000.0000      0.0000    253.2235    475.7549      1.0000      7.0491      0.9500      1.0000      0.0000      0.0500      0.9000           0
1.0             C                  2000.0000      0.0000    253.2235    475.7549      1.0000      1.6592      0.9500      1.0000      0.0000      0.5000      0.9000           0
1.0             C                  2000.0000      0.0000    253.2235    475.7549      1.0000      0.1976      0.9500      1.0000      0.9500      0.5000      0.0100           0
1.0             C                  2000.0000      0.0000    253.2235    475.7549      1.0000      1.1864      0.9500      1.0000      0.0000      0.5000      0.9000           0
1.0             C                  2000.0000      0.0000    253.2235    475.7549      1.0000      0.1314      0.9500      1.0000      0.9500      0.5000      0.0100           0
1.0             C                  2000.0000      0.0000    253.2235    475.7549      1.0000      0.1360      0.9500      1.0000      0.9500      0.5000      0.0100           0
1.0             C                  2000.0000      0.0000    253.2235    475.7549      1.0000      0.1407      0.9500      1.0000      0.9500      0.5000      0.0100           0
1.0             C                  2000.0000      0.0000    253.2235    475.7549      1.0000      0.1716      0.9500      1.0000      0.9500      0.5000      0.0100           0
1.0             C                  2000.0000      0.0000    253.2235    475.7549      1.0000      0.1069      0.9500      1.0000      0.9500      0.5000      0.0100           0
1.0             C                  2000.0000      0.0000    253.2235    475.7549      1.0000      0.7105      0.9500      1.0000      0.0000      0.5000      0.9000           0
1.0             C                  2000.0000      0.0000    253.2235    475.7549      1.0000      0.5816      0.9500      1.0000      0.3000      0.5000      0.2000           0
1.0             C                  2000.0000      0.0000    253.2235    475.7549      1.0000      0.4008      0.9500      1.0000      0.3000      0.5000      0.2000           0
1.0             C                  2000.0000      0.0000    253.2235    475.7549      1.0000      3.8504      0.9500      1.0000      0.0000      0.5000      0.9000           0
1.0             C                  2000.0000      0.0000    253.2235    475.7549      1.0000      0.4865      0.9500      1.0000      0.3000      0.5000      0.2000           0
1.0             C                  2000.0000      0.0000    253.2235    475.7549      1.0000      1.0285      0.9500      1.0000      0.0000      0.5000      0.9000           0
1.0             C                  2000.0000      0.0000    253.2235    475.7549      1.0000      3.2260      0.9500      1.0000      0.0000      0.0500      0.9000           0
1.0             C                  2000.0000      0.0000    253.2235    475.7549      1.0000      2.0945      0.9500      1.0000      0.0000      0.0500      0.9000           0
1.0             C                  2000.0000      0.0000    253.2235    475.7549      1.0000      4.0203      0.9500      1.0000      0.0000      0.0500      0.9000           0
1.0             C                  2000.0000      0.0000    253.2235    475.7549      1.0000      0.5712      0.9500      1.0000      0.3000      0.5000      0.2000           0
1.0             C                  2000.0000      0.0000    253.2235    475.7549      1.0000      3.0847      0.9500      1.0000      0.0000      0.0500      0.9000           0
1.0             C                  2000.0000      0.0000    253.2235    475.7549      1.0000      5.2637      0.9500      1.0000      0.0000      0.5000      0.9000           0
1.0             C                  2000.0000      0.0000    253.2235    475.7549      1.0000      1.8710      0.9500      1.0000      0.0000      0.0500      0.9000           0
1.0             C                  2000.0000      0.0000    253.2235    475.7549      1.0000      4.9147      0.9500      1.0000      0.0000      0.5000      0.9000           0
1.0             C                  2000.0000      0.0000    253.2235    475.7549      1.0000      0.2651      0.9500      1.0000      0.3000      0.5000      0.2000           0
1.0             C                  2000.0000      0.0000    253.2235    475.7549      1.0000      2.9117      0.9500      1.0000      0.0000      0.0500      0.9000           0
1.0             C                  2000.0000      0.0000    253.2235    475.7549      1.0000      1.4194      0.9500      1.0000      0.0000      0.5000      0.9000           0
1.0             C                  2000.0000      0.0000    253.2235    475.7549      1.0000      0.5798      0.9500      1.0000      0.3000      0.5000      0.2000           0
1.0             C                  2000.0000      0.0000    253.2235    475.7549      1.0000      1.0667      0.9500      1.0000      0.0000      0.5000      0.9000           0
1.0             C                  2000.0000      0.0000    253.2235    475.7549      1.0000      1.7548      0.9500      1.0000      0.0000      0.5000      0.9000           0
1.0             C                  2000.0000      0.0000    253.2235    475.7549      1.0000      0.2780      0.9500      1.0000      0.3000      0.5000      0.2000           0
1.0             C                  2000.0000      0.0000    253.2235    475.7549      1.0000      0.8051      0.9500      1.0000      0.0000      0.5000      0.9000           0
1.0             C                  2000.0000      0.0000    253.2235    475.7549      1.0000      3.1493      0.9500      1.0000      0.0000      0.0500      0.9000           0
1.0             C                  2000.0000      0.0000    253.2235    475.7549      1.0000      2.1659      0.9500      1.0000      0.0000      0.0500      0.9000           0
1.0             C                  2000.0000      0.0000    253.2235    475.7549      1.0000      3.9994      0.9500      1.0000      0.0000      0.0500      0.9000           0
1.0             C                  2000.0000      0.0000    253.2235    475.7549      1.0000      0.5968      0.9500      1.0000      0.3000      0.5000      0.2000           0
1.0             C                  2000.0000      0.0000    253.2235    475.7549      1.0000      0.2173      0.9500      1.0000      0.3000      0.5000      0.2000           0
1.0             C                  2000.0000      0.0000    253.2235    475.7549      1.0000      2.1572      0.9500      1.0000      0.0000      0.0500      0.9000           0
1.0             C                  2000.0000      0.0000    253.2235    475.7549      1.0000      1.2691      0.9500      1.0000      0.0000      0.5000      0.9000           0
1.0             C                  2000.0000      0.0000    253.2235    475.7549      1.0000      0.1968      0.9500      1.0000      0.9500      0.5000      0.0100           0
1.0             C                  2000.0000      0.0000    253.2235    475.7549      1.0000      5.1946      0.9500      1.0000      0.0000      0.0500      0.9000           0
1.0             C                  2000.0000      0.0000    253.2235    475.7549      1.0000      0.3418      0.9500      1.0000      0.3000      0.5000      0.2000           0
1.0             C                  2000.0000      0.0000    253.2235    475.7549      1.0000      1.4605      0.9500      1.0000      0.0000      0.5000      0.9000           0
1.0             C                  2000.0000      0.0000    253.2235    475.7549      1.0000      2.0167      0.9500      1.0000      0.0000      0.0500      0.9000           0
1.0             C                  2000.0000      0.0000    253.2235    475.7549      1.0000      4.9136      0.9500      1.0000      0.0000      0.5000      0.9000           0
1.0             C                  2000.0000      0.0000    253.2235    475.7549      1.0000      1.0584      0.9500      1.0000      0.0000      0.5000      0.9000           0
1.0             C                  2000.0000      0.0000    253.2235    475.7549      1.0000      5.6702      0.9500      1.0000      0.0000      0.0500      0.9000           0
1.0             C                  2000.0000      0.0000    253.2235    475.7549      1.0000      2.6389      0.9500      1.0000      0.0000      0.0500      0.9000           0
1.0             C                  2000.0000      0.0000    253.2235    475.7549      1.0000      4.4584      0.9500      1.0000      0.0000      0.0500      0.9000           0
1.0             C                  2000.0000      0.0000    253.2235    475.7549      1.0000      1.3516      0.9500      1.0000      0.0000      0.5000      0.9000           0
1.0             C                  2000.0000      0.0000    253.2235    475.7549      1.0000      0.6052      0.9500      1.0000      0.3000      0.5000      0.2000           0
1.0             C                  2000.0000      0.0000    253.2235    475.7549      1.0000      4.0872      0.9500      1.0000      0.0000      0.5000      0.9000           0
1.0             C                  2000.0000      0.0000    253.2235    475.7549      1.0000      4.9830      0.9500      1.0000      0.0000      0.0500      0.9000           0
1.0             C                  2000.0000      0.0000    253.2235    475.7549      1.0000      0.2246      0.9500      1.0000      0.3000      0.5000      0.2000           0
1.0             C                  2000.0000      0.0000    253.2235    475.7549      1.0000      0.2279      0.9500      1.0000      0.3000      0.5000      0.2000           0
1.0             C                  2000.0000      0.0000    253.2235    475.7549      1.0000      0.3595      0.9500      1.0000      0.3000      0.5000      0.2000           0
1.0             C                  2000.0000      0.0000    253.2235    475.7549      1.0000      0.9034      0.9500      1.0000      0.0000      0.5000      0.9000           0
1.0             C                  2000.0000      0.0000    253.2235    475.7549      1.0000      0.2780      0.9500      1.0000      0.3000      0.5000      0.2000           0
1.0             C                  2000.0000      0.0000    253.2235    475.7549      1.0000      0.2143      0.9500      1.0000      0.3000      0.5000      0.2000           0
1.0             C                  2000.0000      0.0000    253.2235    475.7549      1.0000      0.2588      0.9500      1.0000      0.3000      0.5000      0.2000           0
1.0             C                  2000.0000      0.0000    253.2235    475.7549      1.0000      0.4985      0.9500      1.0000      0.3000      0.5000      0.2000           0
1.0             C                  2000.0000      0.0000    253.2235    475.7549      1.0000      0.5654      0.9500      1.0000      0.3000      0.5000      0.2000           0
1.0             C                  2000.0000      0.0000    253.2235    475.7549      1.0000      0.1406      0.9500      1.0000      0.9500      0.5000      0.0100           0
1.0             C                  2000.0000      0.0000    253.2235    475.7549      1.0000      0.0973      0.9500      1.0000      0.9500      0.5000      0.0100           0
1.0             C                  2000.0000      0.0000    253.2235    475.7549      1.0000      6.6060      0.9500      1.0000      0.0000      0.0500      0.9000           0
1.0             C                  2000.0000      0.0000    253.2235    475.7549      1.0000      1.6369      0.9500      1.0000      0.0000      0.5000      0.9000           0
1.0             C                  2000.0000      0.0000    253.2235    475.7549      1.0000      0.4224      0.9500      1.0000      0.3000      0.5000      0.2000           0
1.0             C                  2000.0000      0.0000    253.2235    475.7549      1.0000      0.9922      0.9500      1.0000      0.0000      0.5000      0.9000           0
[...]
1.0             C                  2000.0000      0.0000    253.2235    475.7549      1.0000      0.5211      0.9500      1.0000      0.3000      0.5000      0.2000           0
1.0             C                  2000.0000      0.0000    253.2235    475.7549      1.0000      0.1771      0.9500      1.0000      0.9500      0.5000      0.0100           0
1.0             C                  2000.0000      0.0000    253.2235    475.7549      1.0000      0.1870      0.9500      1.0000      0.9500      0.5000      0.0100           0
1.0             C                  2000.0000      0.0000    253.2235    475.7549      1.0000      0.4669      0.9500      1.0000      0.3000      0.5000      0.2000           0
1.0             C                  2000.0000      0.0000    253.2235    475.7549      1.0000      0.5555      0.9500      1.0000      0.3000      0.5000      0.2000           0
1.0             C                  2000.0000      0.0000    253.2235    475.7549      1.0000      0.4085      0.9500      1.0000      0.3000      0.5000      0.2000           0
1.0             C                  2000.0000      0.0000    253.2235    475.7549      1.0000      3.8633      0.9500      1.0000      0.0000      0.0500      0.9000           0
1.0             C                  2000.0000      0.0000    253.2235    475.7549      1.0000      0.4476      0.9500      1.0000      0.3000      0.5000      0.2000           0
1.0             C                  2000.0000      0.0000    253.2235    475.7549      1.0000      0.4279      0.9500      1.0000      0.3000      0.5000      0.2000           0
1.0             C                  2000.0000      0.0000    253.2235    475.7549      1.0000      0.1997      0.9500      1.0000      0.9500      0.5000      0.0100           0
1.0             C                  2000.0000      0.0000    253.2235    475.7549      1.0000      3.2006      0.9500      1.0000      0.0000      0.0500      0.9000           0
1.0             C                  2000.0000      0.0000    253.2235    475.7549      1.0000      0.1443      0.9500      1.0000      0.9500      0.5000      0.0100           0
1.0             C                  2000.0000      0.0000    253.2235    475.7549      1.0000      0.2153      0.9500      1.0000      0.3000      0.5000      0.2000           0
1.0             C                  2000.0000      0.0000    253.2235    475.7549      1.0000      0.7608      0.9500      1.0000      0.0000      0.5000      0.9000           0
1.0             C                  2000.0000      0.0000    253.2235    475.7549      1.0000      1.2732      0.9500      1.0000      0.0000      0.5000      0.9000           0
1.0             C                  2000.0000      0.0000    253.2235    475.7549      1.0000      0.9892      0.9500      1.0000      0.0000      0.5000      0.9000           0
1.0             C                  2000.0000      0.0000    253.2235    475.7549      1.0000      0.1490      0.9500      1.0000      0.9500      0.5000      0.0100           0
1.0             C                  2000.0000      0.0000    253.2235    475.7549      1.0000      0.3602      0.9500      1.0000      0.3000      0.5000      0.2000           0
1.0             C                  2000.0000      0.0000    253.2235    475.7549      1.0000      0.1465      0.9500      1.0000      0.9500      0.5000      0.0100           0
1.0             C                  2000.0000      0.0000    253.2235    475.7549      1.0000      0.1660      0.9500      1.0000      0.9500      0.5000      0.0100           0
1.0             C                  2000.0000      0.0000    253.2235    475.7549      1.0000      0.2823      0.9500      1.0000      0.3000      0.5000      0.2000           0
1.0             C                  2000.0000      0.0000    253.2235    475.7549      1.0000      0.1978      0.9500      1.0000      0.9500      0.5000      0.0100           0
1.0             C                  2000.0000      0.0000    253.2235    475.7549      1.0000      3.0877      0.9500      1.0000      0.0000      0.0500      0.9000           0
1.0             C                  2000.0000      0.0000    253.2235    475.7549      1.0000      0.2884      0.9500      1.0000      0.3000      0.5000      0.2000           0
1.0             C                  2000.0000      0.0000    253.2235    475.7549      1.0000      1.2659      0.9500      1.0000      0.0000      0.5000      0.9000           0
1.0             C                  2000.0000      0.0000    253.2235    475.7549      1.0000      0.4768      0.9500      1.0000      0.3000      0.5000      0.2000           0
1.0             C                  2000.0000      0.0000    253.2235    475.7549      1.0000      0.3006      0.9500      1.0000      0.3000      0.5000      0.2000           0
1.0             C                  2000.0000      0.0000    253.2235    475.7549      1.0000      2.8358      0.9500      1.0000      0.0000      0.0500      0.9000           0
1.0             C                  2000.0000      0.0000    253.2235    475.7549      1.0000      3.1842      0.9500      1.0000      0.0000      0.0500      0.9000           0
1.0             C                  2000.0000      0.0000    253.2235    475.7549      1.0000      0.4118      0.9500      1.0000      0.3000      0.5000      0.2000           0
1.0             C                  2000.0000      0.0000    253.2235    475.7549      1.0000      2.1127      0.9500      1.0000      0.0000      0.0500      0.9000           0
1.0             C                  2000.0000      0.0000    253.2235    475.7549      1.0000      4.1222      0.9500      1.0000      0.0000      0.0500      0.9000           0
1.0             C                  2000.0000      0.0000    253.2235    475.7549      1.0000      0.5182      0.9500      1.0000      0.3000      0.5000      0.2000           0
1.0             C                  2000.0000      0.0000    253.2235    475.7549      1.0000     10.5507      0.9500      1.0000      0.0000      0.0500      0.9000           0
1.0             C                  2000.0000      0.0000    253.2235    475.7549      1.0000      0.3070      0.9500      1.0000      0.3000      0.5000      0.2000           0
1.0             C                  2000.0000      0.0000    253.2235    475.7549      1.0000      0.1965      0.9500      1.0000      0.9500      0.5000      0.0100           0
1.0             C                  2000.0000      0.0000    253.2235    475.7549      1.0000      1.8276      0.9500      1.0000      0.0000      0.5000      0.9000           0
1.0             C                  2000.0000      0.0000    253.2235    475.7549      1.0000      7.7672      0.9500      1.0000      0.0000      0.0500      0.9000           0
1.0             C                  2000.0000      0.0000    253.2235    475.7549      1.0000      0.5526      0.9500      1.0000      0.3000      0.5000      0.2000           0
1.0             C                  2000.0000      0.0000    253.2235    475.7549      1.0000      0.3261      0.9500      1.0000      0.3000      0.5000      0.2000           0
1.0             C                  2000.0000      0.0000    253.2235    475.7549      1.0000      2.5258      0.9500      1.0000      0.0000      0.0500      0.9000           0
1.0             C                  2000.0000      0.0000    253.2235    475.7549      1.0000      4.0574      0.9500      1.0000      0.0000      0.0500      0.9000           0
1.0             C                  2000.0000      0.0000    253.2235    475.7549      1.0000      0.3973      0.9500      1.0000      0.3000      0.5000      0.2000           0
1.0             C                  2000.0000      0.0000    253.2235    475.7549      1.0000      0.2301      0.9500      1.0000      0.3000      0.5000      0.2000           0
1.0             C                  2000.0000      0.0000    253.2235    475.7549      1.0000      0.8315      0.9500      1.0000      0.0000      0.5000      0.9000           0
1.0             C                  2000.0000      0.0000    253.2235    475.7549      1.0000      0.8623      0.9500      1.0000      0.0000      0.5000      0.9000           0
1.0             C                  2000.0000      0.0000    253.2235    475.7549      1.0000      0.7537      0.9500      1.0000      0.0000      0.5000      0.9000           0
1.0             C                  2000.0000      0.0000    253.2235    475.7549      1.0000      1.4070      0.9500      1.0000      0.0000      0.5000      0.9000           0
1.0             C                  2000.0000      0.0000    253.2235    475.7549      1.0000      0.1777      0.9500      1.0000      0.9500      0.5000      0.0100           0
1.0             C                  2000.0000      0.0000    253.2235    475.7549      1.0000      1.0636      0.9500      1.0000      0.0000      0.5000      0.9000           0
1.0             C                  2000.0000      0.0000    253.2235    475.7549      1.0000      3.1124      0.9500      1.0000      0.0000      0.0500      0.9000           0
1.0             C                  2000.0000      0.0000    253.2235    475.7549      1.0000      0.2852      0.9500      1.0000      0.3000      0.5000      0.2000           0
1.0             C                  2000.0000      0.0000    253.2235    475.7549      1.0000      0.4313      0.9500      1.0000      0.3000      0.5000      0.2000           0
1.0             C                  2000.0000      0.0000    253.2235    475.7549      1.0000      2.3254      0.9500      1.0000      0.0000      0.0500      0.9000           0
1.0             C                  2000.0000      0.0000    253.2235    475.7549      1.0000      0.4274      0.9500      1.0000      0.3000      0.5000      0.2000           0
1.0             C                  2000.0000      0.0000    253.2235    475.7549      1.0000      1.2258      0.9500      1.0000      0.0000      0.5000      0.9000           0
1.0             C                  2000.0000      0.0000    253.2235    475.7549      1.0000      2.3235      0.9500      1.0000      0.0000      0.0500      0.9000           0
1.0             C                  2000.0000      0.0000    253.2235    475.7549      1.0000      0.5137      0.9500      1.0000      0.3000      0.5000      0.2000           0
1.0             C                  2000.0000      0.0000    253.2235    475.7549      1.0000      1.0623      0.9500      1.0000      0.0000      0.5000      0.9000           0
1.0             C                  2000.0000      0.0000    253.2235    475.7549      1.0000      0.4948      0.9500      1.0000      0.3000      0.5000      0.2000           0
1.0             C                  2000.0000      0.0000    253.2235    475.7549      1.0000      0.9041      0.9500      1.0000      0.0000      0.5000      0.9000           0
1.0             C                  2000.0000      0.0000    253.2235    475.7549      1.0000      0.9074      0.9500      1.0000      0.0000      0.5000      0.9000           0
1.0             C                  2000.0000      0.0000    253.2235    475.7549      1.0000      0.9361      0.9500      1.0000      0.0000      0.5000      0.9000           0
1.0             C                  2000.0000      0.0000    253.2235    475.7549      1.0000      0.4655      0.9500      1.0000      0.3000      0.5000      0.2000           0
1.0             C                  2000.0000      0.0000    253.2235    475.7549      1.0000      0.4259      0.9500      1.0000      0.3000      0.5000      0.2000           0
1.0             C                  2000.0000      0.0000    253.2235    475.7549      1.0000      1.2333      0.9500      1.0000      0.0000      0.5000      0.9000           0
1.0             C                  2000.0000      0.0000    253.2235    475.7549      1.0000      1.3165      0.9500      1.0000      0.0000      0.5000      0.9000           0
1.0             C                  2000.0000      0.0000    253.2235    475.7549      1.0000      1.0842      0.9500      1.0000      0.0000      0.5000      0.9000           0
1.0             C                  2000.0000      0.0000    253.2235    475.7549      1.0000      2.6224      0.9500      1.0000      0.0000      0.0500      0.9000           0
1.0             C                  2000.0000      0.0000    253.2235    475.7549      1.0000      2.1905      0.9500      1.0000      0.0000      0.0500      0.9000           0
1.0             C                  2000.0000      0.0000    253.2235    475.7549      1.0000      6.1534      0.9500      1.0000      0.0000      0.0500      0.9000           0
1.0             C                  2000.0000      0.0000    253.2235    475.7549      1.0000      5.2675      0.9500      1.0000      0.0000      0.0500      0.9000           0
1.0             C                  2000.0000      0.0000    253.2235    475.7549      1.0000      0.3421      0.9500      1.0000      0.3000      0.5000      0.2000           0
1.0             C                  2000.0000      0.0000    253.2235    475.7549      1.0000      0.5547      0.9500      1.0000      0.3000      0.5000      0.2000           0
1.0             C                  2000.0000      0.0000    253.2235    475.7549      1.0000      0.4071      0.9500      1.0000      0.3000      0.5000      0.2000           0
1.0             C                  2000.0000      0.0000    253.2235    475.7549      1.0000      0.4464      0.9500      1.0000      0.3000      0.5000      0.2000           0
1.0             C                  2000.0000      0.0000    253.2235    475.7549      1.0000      0.2638      0.9500      1.0000      0.3000      0.5000      0.2000           0
1.0             C                  2000.0000      0.0000    253.2235    475.7549      1.0000      0.3469      0.9500      1.0000      0.3000      0.5000      0.2000           0
1.0             C                  2000.0000      0.0000    253.2235    475.7549      1.0000      0.4447      0.9500      1.0000      0.3000      0.5000      0.2000           0
1.0             C                  2000.0000      0.0000    253.2235    475.7549      1.0000      0.2644      0.9500      1.0000      0.3000      0.5000      0.2000           0
1.0             C                  2000.0000      0.0000    253.2235    475.7549      1.0000      1.1778      0.9500      1.0000      0.0000      0.5000      0.9000           0
1.0             C                  2000.0000      0.0000    253.2235    475.7549      1.0000      0.9248      0.9500      1.0000      0.0000      0.5000      0.9000           0
1.0             C                  2000.0000      0.0000    253.2235    475.7549      1.0000      0.8926      0.9500      1.0000      0.0000      0.5000      0.9000           0
1.0             C                  2000.0000      0.0000    253.2235    475.7549      1.0000      0.8821      0.9500      1.0000      0.0000      0.5000      0.9000           0
1.0             C                  2000.0000      0.0000    253.2235    475.7549      1.0000      0.2370      0.9500      1.0000      0.3000      0.5000      0.2000           0
1.0             C                  2000.0000      0.0000    253.2235    475.7549      1.0000      0.3635      0.9500      1.0000      0.3000      0.5000      0.2000           0
1.0             C                  2000.0000      0.0000    253.2235    475.7549      1.0000      3.5604      0.9500      1.0000      0.0000      0.0500      0.9000           0
1.0             C                  2000.0000      0.0000    253.2235    475.7549      1.0000      4.1604      0.9500      1.0000      0.0000      0.0500      0.9000           0
1.0             C                  2000.0000      0.0000    253.2235    475.7549      1.0000      0.4474      0.9500      1.0000      0.3000      0.5000      0.2000           0
1.0             C                  2000.0000      0.0000    253.2235    475.7549      1.0000      0.2654      0.9500      1.0000      0.3000      0.5000      0.2000           0
1.0             C                  2000.0000      0.0000    253.2235    475.7549      1.0000      5.7414      0.9500      1.0000      0.0000      0.0500      0.9000           0
1.0             C                  2000.0000      0.0000    253.2235    475.7549      1.0000      6.1341      0.9500      1.0000      0.0000      0.0500      0.9000           0
1.0             C                  2000.0000      0.0000    253.2235    475.7549      1.0000      0.7922      0.9500      1.0000      0.0000      0.5000      0.9000           0
1.0             C                  2000.0000      0.0000    253.2235    475.7549      1.0000      0.4959      0.9500      1.0000      0.3000      0.5000      0.2000           0
1.0             C                  2000.0000      0.0000    253.2235    475.7549      1.0000      0.6001      0.9500      1.0000      0.3000      0.5000      0.2000           0
1.0             C                  2000.0000      0.0000    253.2235    475.7549      1.0000      0.3797      0.9500      1.0000      0.3000      0.5000      0.2000           0
1.0             C                  2000.0000      0.0000    253.2235    475.7549      1.0000      0.2764      0.9500      1.0000      0.3000      0.5000      0.2000           0
1.0             C                  2000.0000      0.0000    253.2235    475.7549      1.0000      0.2269      0.9500      1.0000      0.3000      0.5000      0.2000           0
1.0             C                  2000.0000      0.0000    253.2235    475.7549      1.0000      1.6337      0.9500      1.0000      0.0000      0.5000      0.9000           0
1.0             C                  2000.0000      0.0000    253.2235    475.7549      1.0000      2.0866      0.9500      1.0000      0.0000      0.0500      0.9000           0
1.0             C                  2000.0000      0.0000    253.2235    475.7549      1.0000      0.5847      0.9500      1.0000      0.3000      0.5000      0.2000           0
1.0             C                  2000.0000      0.0000    253.2235    475.7549      1.0000      0.8379      0.9500      1.0000      0.0000      0.5000      0.9000           0
1.0             C                  2000.0000      0.0000    253.2235    475.7549      1.0000      0.2871      0.9500      1.0000      0.3000      0.5000      0.2000           0
1.0             C                  2000.0000      0.0000    253.2235    475.7549      1.0000      0.3901      0.9500      1.0000      0.3000      0.5000      0.2000           0
1.0             C                  2000.0000      0.0000    253.2235    475.7549      1.0000      0.1513      0.9500      1.0000      0.9500      0.5000      0.0100           0
1.0             C                  2000.0000      0.0000    253.2235    475.7549      1.0000      4.0122      0.9500      1.0000      0.0000      0.0500      0.9000           0
1.0             C                  2000.0000      0.0000    253.2235    475.7549      1.0000      0.1140      0.9500      1.0000      0.9500      0.5000      0.0100           0
1.0             C                  2000.0000      0.0000    253.2235    475.7549      1.0000      1.8690      0.9500      1.0000      0.0000      0.0500      0.9000           0
1.0             C                  2000.0000      0.0000    253.2235    475.7549      1.0000      1.4888      0.9500      1.0000      0.0000      0.5000      0.9000           0
1.0             C                  2000.0000      0.0000    253.2235    475.7549      1.0000      0.1109      0.9500      1.0000      0.9500      0.5000      0.0100           0
1.0             C                  2000.0000      0.0000    253.2235    475.7549      1.0000      0.1346      0.9500      1.0000      0.9500      0.5000      0.0100           0
1.0             C                  2000.0000      0.0000    253.2235    475.7549      1.0000      1.5384      0.9500      1.0000      0.0000      0.5000      0.9000           0
