                   SWAT+               
             Revision 61.0            
      Soil & Water Assessment Tool    
               PC Version             
    Program reading . . . executing


  Date of Sim  11/ 5/2024 Time  14:15:40
 reading from precipitation file         Time  14:15:40
 reading from temperature file           Time  14:15:40
 reading from solar radiation file       Time  14:15:40
 reading from relative humidity file     Time  14:15:40
 reading from wind file                  Time  14:15:41
 reading from wgn file                   Time  14:15:41
 reading from wx station file            Time  14:15:41
  Original Simulation        1   1  1999 Yr    1 of   22 Time  14:15:46
  Original Simulation        1   2  1999 Yr    1 of   22 Time  14:15:46
  Original Simulation        1   3  1999 Yr    1 of   22 Time  14:15:47
  Original Simulation        1   4  1999 Yr    1 of   22 Time  14:15:47
  Original Simulation        1   5  1999 Yr    1 of   22 Time  14:15:47
  Original Simulation        1   6  1999 Yr    1 of   22 Time  14:15:47
  Original Simulation        1   7  1999 Yr    1 of   22 Time  14:15:48
  Original Simulation        1   8  1999 Yr    1 of   22 Time  14:15:48
  Original Simulation        1   9  1999 Yr    1 of   22 Time  14:15:48
  Original Simulation        1  10  1999 Yr    1 of   22 Time  14:15:48
  Original Simulation        1  11  1999 Yr    1 of   22 Time  14:15:49
  Original Simulation        1  12  1999 Yr    1 of   22 Time  14:15:49
  Original Simulation        1  13  1999 Yr    1 of   22 Time  14:15:49
  Original Simulation        1  14  1999 Yr    1 of   22 Time  14:15:49
  Original Simulation        1  15  1999 Yr    1 of   22 Time  14:15:50
  Original Simulation        1  16  1999 Yr    1 of   22 Time  14:15:50
  Original Simulation        1  17  1999 Yr    1 of   22 Time  14:15:50
  Original Simulation        1  18  1999 Yr    1 of   22 Time  14:15:50
  Original Simulation        1  19  1999 Yr    1 of   22 Time  14:15:51
  Original Simulation        1  20  1999 Yr    1 of   22 Time  14:15:51
  Original Simulation        1  21  1999 Yr    1 of   22 Time  14:15:51
  Original Simulation        1  22  1999 Yr    1 of   22 Time  14:15:51
  Original Simulation        1  23  1999 Yr    1 of   22 Time  14:15:52
  Original Simulation        1  24  1999 Yr    1 of   22 Time  14:15:52
  Original Simulation        1  25  1999 Yr    1 of   22 Time  14:15:52
  Original Simulation        1  26  1999 Yr    1 of   22 Time  14:15:53
  Original Simulation        1  27  1999 Yr    1 of   22 Time  14:15:53
  Original Simulation        1  28  1999 Yr    1 of   22 Time  14:15:53
  Original Simulation        1  29  1999 Yr    1 of   22 Time  14:15:54
  Original Simulation        1  30  1999 Yr    1 of   22 Time  14:15:54
  Original Simulation        1  31  1999 Yr    1 of   22 Time  14:15:54
  Original Simulation        2   1  1999 Yr    1 of   22 Time  14:15:54
  Original Simulation        2   2  1999 Yr    1 of   22 Time  14:15:55
  Original Simulation        2   3  1999 Yr    1 of   22 Time  14:15:55
  Original Simulation        2   4  1999 Yr    1 of   22 Time  14:15:55
  Original Simulation        2   5  1999 Yr    1 of   22 Time  14:15:56
  Original Simulation        2   6  1999 Yr    1 of   22 Time  14:15:56
  Original Simulation        2   7  1999 Yr    1 of   22 Time  14:15:56
  Original Simulation        2   8  1999 Yr    1 of   22 Time  14:15:57
  Original Simulation        2   9  1999 Yr    1 of   22 Time  14:15:57
  Original Simulation        2  10  1999 Yr    1 of   22 Time  14:15:57
  Original Simulation        2  11  1999 Yr    1 of   22 Time  14:15:57
  Original Simulation        2  12  1999 Yr    1 of   22 Time  14:15:57
  Original Simulation        2  13  1999 Yr    1 of   22 Time  14:15:58
  Original Simulation        2  14  1999 Yr    1 of   22 Time  14:15:58
  Original Simulation        2  15  1999 Yr    1 of   22 Time  14:15:58
  Original Simulation        2  16  1999 Yr    1 of   22 Time  14:15:59
  Original Simulation        2  17  1999 Yr    1 of   22 Time  14:15:59
  Original Simulation        2  18  1999 Yr    1 of   22 Time  14:15:59
  Original Simulation        2  19  1999 Yr    1 of   22 Time  14:16: 0
  Original Simulation        2  20  1999 Yr    1 of   22 Time  14:16: 0
  Original Simulation        2  21  1999 Yr    1 of   22 Time  14:16: 0
  Original Simulation        2  22  1999 Yr    1 of   22 Time  14:16: 0
  Original Simulation        2  23  1999 Yr    1 of   22 Time  14:16: 1
  Original Simulation        2  24  1999 Yr    1 of   22 Time  14:16: 1
  Original Simulation        2  25  1999 Yr    1 of   22 Time  14:16: 1
  Original Simulation        2  26  1999 Yr    1 of   22 Time  14:16: 2
  Original Simulation        2  27  1999 Yr    1 of   22 Time  14:16: 2
  Original Simulation        2  28  1999 Yr    1 of   22 Time  14:16: 2
  Original Simulation        3   1  1999 Yr    1 of   22 Time  14:16: 2
  Original Simulation        3   2  1999 Yr    1 of   22 Time  14:16: 3
  Original Simulation        3   3  1999 Yr    1 of   22 Time  14:16: 3
  Original Simulation        3   4  1999 Yr    1 of   22 Time  14:16: 3
  Original Simulation        3   5  1999 Yr    1 of   22 Time  14:16: 4
  Original Simulation        3   6  1999 Yr    1 of   22 Time  14:16: 4
  Original Simulation        3   7  1999 Yr    1 of   22 Time  14:16: 4
  Original Simulation        3   8  1999 Yr    1 of   22 Time  14:16: 4
  Original Simulation        3   9  1999 Yr    1 of   22 Time  14:16: 5
  Original Simulation        3  10  1999 Yr    1 of   22 Time  14:16: 5
  Original Simulation        3  11  1999 Yr    1 of   22 Time  14:16: 5
  Original Simulation        3  12  1999 Yr    1 of   22 Time  14:16: 6
  Original Simulation        3  13  1999 Yr    1 of   22 Time  14:16: 6
  Original Simulation        3  14  1999 Yr    1 of   22 Time  14:16: 6
  Original Simulation        3  15  1999 Yr    1 of   22 Time  14:16: 7
  Original Simulation        3  16  1999 Yr    1 of   22 Time  14:16: 7
  Original Simulation        3  17  1999 Yr    1 of   22 Time  14:16: 7
  Original Simulation        3  18  1999 Yr    1 of   22 Time  14:16: 8
  Original Simulation        3  19  1999 Yr    1 of   22 Time  14:16: 8
  Original Simulation        3  20  1999 Yr    1 of   22 Time  14:16: 8
  Original Simulation        3  21  1999 Yr    1 of   22 Time  14:16: 8
  Original Simulation        3  22  1999 Yr    1 of   22 Time  14:16: 9
  Original Simulation        3  23  1999 Yr    1 of   22 Time  14:16: 9
  Original Simulation        3  24  1999 Yr    1 of   22 Time  14:16: 9
  Original Simulation        3  25  1999 Yr    1 of   22 Time  14:16:10
  Original Simulation        3  26  1999 Yr    1 of   22 Time  14:16:10
  Original Simulation        3  27  1999 Yr    1 of   22 Time  14:16:10
  Original Simulation        3  28  1999 Yr    1 of   22 Time  14:16:11
  Original Simulation        3  29  1999 Yr    1 of   22 Time  14:16:11
  Original Simulation        3  30  1999 Yr    1 of   22 Time  14:16:11
  Original Simulation        3  31  1999 Yr    1 of   22 Time  14:16:11
  Original Simulation        4   1  1999 Yr    1 of   22 Time  14:16:11
  Original Simulation        4   2  1999 Yr    1 of   22 Time  14:16:12
  Original Simulation        4   3  1999 Yr    1 of   22 Time  14:16:12
  Original Simulation        4   4  1999 Yr    1 of   22 Time  14:16:12
  Original Simulation        4   5  1999 Yr    1 of   22 Time  14:16:13
  Original Simulation        4   6  1999 Yr    1 of   22 Time  14:16:13
  Original Simulation        4   7  1999 Yr    1 of   22 Time  14:16:13
  Original Simulation        4   8  1999 Yr    1 of   22 Time  14:16:13
  Original Simulation        4   9  1999 Yr    1 of   22 Time  14:16:14
  Original Simulation        4  10  1999 Yr    1 of   22 Time  14:16:14
  Original Simulation        4  11  1999 Yr    1 of   22 Time  14:16:14
  Original Simulation        4  12  1999 Yr    1 of   22 Time  14:16:15
  Original Simulation        4  13  1999 Yr    1 of   22 Time  14:16:15
  Original Simulation        4  14  1999 Yr    1 of   22 Time  14:16:15
  Original Simulation        4  15  1999 Yr    1 of   22 Time  14:16:15
  Original Simulation        4  16  1999 Yr    1 of   22 Time  14:16:16
  Original Simulation        4  17  1999 Yr    1 of   22 Time  14:16:16
  Original Simulation        4  18  1999 Yr    1 of   22 Time  14:16:16
  Original Simulation        4  19  1999 Yr    1 of   22 Time  14:16:16
  Original Simulation        4  20  1999 Yr    1 of   22 Time  14:16:17
  Original Simulation        4  21  1999 Yr    1 of   22 Time  14:16:17
  Original Simulation        4  22  1999 Yr    1 of   22 Time  14:16:17
  Original Simulation        4  23  1999 Yr    1 of   22 Time  14:16:17
  Original Simulation        4  24  1999 Yr    1 of   22 Time  14:16:18
  Original Simulation        4  25  1999 Yr    1 of   22 Time  14:16:18
  Original Simulation        4  26  1999 Yr    1 of   22 Time  14:16:18
  Original Simulation        4  27  1999 Yr    1 of   22 Time  14:16:19
  Original Simulation        4  28  1999 Yr    1 of   22 Time  14:16:19
  Original Simulation        4  29  1999 Yr    1 of   22 Time  14:16:19
  Original Simulation        4  30  1999 Yr    1 of   22 Time  14:16:20
  Original Simulation        5   1  1999 Yr    1 of   22 Time  14:16:20
  Original Simulation        5   2  1999 Yr    1 of   22 Time  14:16:20
  Original Simulation        5   3  1999 Yr    1 of   22 Time  14:16:20
  Original Simulation        5   4  1999 Yr    1 of   22 Time  14:16:21
  Original Simulation        5   5  1999 Yr    1 of   22 Time  14:16:21
  Original Simulation        5   6  1999 Yr    1 of   22 Time  14:16:21
  Original Simulation        5   7  1999 Yr    1 of   22 Time  14:16:22
  Original Simulation        5   8  1999 Yr    1 of   22 Time  14:16:22
  Original Simulation        5   9  1999 Yr    1 of   22 Time  14:16:22
  Original Simulation        5  10  1999 Yr    1 of   22 Time  14:16:23
  Original Simulation        5  11  1999 Yr    1 of   22 Time  14:16:23
  Original Simulation        5  12  1999 Yr    1 of   22 Time  14:16:23
  Original Simulation        5  13  1999 Yr    1 of   22 Time  14:16:23
  Original Simulation        5  14  1999 Yr    1 of   22 Time  14:16:24
  Original Simulation        5  15  1999 Yr    1 of   22 Time  14:16:24
  Original Simulation        5  16  1999 Yr    1 of   22 Time  14:16:24
  Original Simulation        5  17  1999 Yr    1 of   22 Time  14:16:25
  Original Simulation        5  18  1999 Yr    1 of   22 Time  14:16:25
  Original Simulation        5  19  1999 Yr    1 of   22 Time  14:16:25
  Original Simulation        5  20  1999 Yr    1 of   22 Time  14:16:26
  Original Simulation        5  21  1999 Yr    1 of   22 Time  14:16:26
  Original Simulation        5  22  1999 Yr    1 of   22 Time  14:16:26
  Original Simulation        5  23  1999 Yr    1 of   22 Time  14:16:27
  Original Simulation        5  24  1999 Yr    1 of   22 Time  14:16:27
  Original Simulation        5  25  1999 Yr    1 of   22 Time  14:16:27
  Original Simulation        5  26  1999 Yr    1 of   22 Time  14:16:27
  Original Simulation        5  27  1999 Yr    1 of   22 Time  14:16:28
  Original Simulation        5  28  1999 Yr    1 of   22 Time  14:16:28
  Original Simulation        5  29  1999 Yr    1 of   22 Time  14:16:28
  Original Simulation        5  30  1999 Yr    1 of   22 Time  14:16:29
  Original Simulation        5  31  1999 Yr    1 of   22 Time  14:16:29
  Original Simulation        6   1  1999 Yr    1 of   22 Time  14:16:29
  Original Simulation        6   2  1999 Yr    1 of   22 Time  14:16:29
  Original Simulation        6   3  1999 Yr    1 of   22 Time  14:16:30
  Original Simulation        6   4  1999 Yr    1 of   22 Time  14:16:30
  Original Simulation        6   5  1999 Yr    1 of   22 Time  14:16:30
  Original Simulation        6   6  1999 Yr    1 of   22 Time  14:16:31
  Original Simulation        6   7  1999 Yr    1 of   22 Time  14:16:31
  Original Simulation        6   8  1999 Yr    1 of   22 Time  14:16:31
  Original Simulation        6   9  1999 Yr    1 of   22 Time  14:16:32
  Original Simulation        6  10  1999 Yr    1 of   22 Time  14:16:32
  Original Simulation        6  11  1999 Yr    1 of   22 Time  14:16:32
  Original Simulation        6  12  1999 Yr    1 of   22 Time  14:16:33
  Original Simulation        6  13  1999 Yr    1 of   22 Time  14:16:33
  Original Simulation        6  14  1999 Yr    1 of   22 Time  14:16:33
  Original Simulation        6  15  1999 Yr    1 of   22 Time  14:16:33
  Original Simulation        6  16  1999 Yr    1 of   22 Time  14:16:34
  Original Simulation        6  17  1999 Yr    1 of   22 Time  14:16:34
  Original Simulation        6  18  1999 Yr    1 of   22 Time  14:16:34
  Original Simulation        6  19  1999 Yr    1 of   22 Time  14:16:35
  Original Simulation        6  20  1999 Yr    1 of   22 Time  14:16:35
  Original Simulation        6  21  1999 Yr    1 of   22 Time  14:16:35
  Original Simulation        6  22  1999 Yr    1 of   22 Time  14:16:36
  Original Simulation        6  23  1999 Yr    1 of   22 Time  14:16:36
  Original Simulation        6  24  1999 Yr    1 of   22 Time  14:16:36
  Original Simulation        6  25  1999 Yr    1 of   22 Time  14:16:36
  Original Simulation        6  26  1999 Yr    1 of   22 Time  14:16:36
  Original Simulation        6  27  1999 Yr    1 of   22 Time  14:16:37
  Original Simulation        6  28  1999 Yr    1 of   22 Time  14:16:37
  Original Simulation        6  29  1999 Yr    1 of   22 Time  14:16:37
  Original Simulation        6  30  1999 Yr    1 of   22 Time  14:16:38
  Original Simulation        7   1  1999 Yr    1 of   22 Time  14:16:38
  Original Simulation        7   2  1999 Yr    1 of   22 Time  14:16:38
  Original Simulation        7   3  1999 Yr    1 of   22 Time  14:16:38
  Original Simulation        7   4  1999 Yr    1 of   22 Time  14:16:38
  Original Simulation        7   5  1999 Yr    1 of   22 Time  14:16:39
  Original Simulation        7   6  1999 Yr    1 of   22 Time  14:16:39
  Original Simulation        7   7  1999 Yr    1 of   22 Time  14:16:39
  Original Simulation        7   8  1999 Yr    1 of   22 Time  14:16:40
  Original Simulation        7   9  1999 Yr    1 of   22 Time  14:16:40
  Original Simulation        7  10  1999 Yr    1 of   22 Time  14:16:40
  Original Simulation        7  11  1999 Yr    1 of   22 Time  14:16:40
  Original Simulation        7  12  1999 Yr    1 of   22 Time  14:16:41
  Original Simulation        7  13  1999 Yr    1 of   22 Time  14:16:41
  Original Simulation        7  14  1999 Yr    1 of   22 Time  14:16:41
  Original Simulation        7  15  1999 Yr    1 of   22 Time  14:16:41
  Original Simulation        7  16  1999 Yr    1 of   22 Time  14:16:42
  Original Simulation        7  17  1999 Yr    1 of   22 Time  14:16:42
  Original Simulation        7  18  1999 Yr    1 of   22 Time  14:16:42
  Original Simulation        7  19  1999 Yr    1 of   22 Time  14:16:43
  Original Simulation        7  20  1999 Yr    1 of   22 Time  14:16:43
  Original Simulation        7  21  1999 Yr    1 of   22 Time  14:16:43
  Original Simulation        7  22  1999 Yr    1 of   22 Time  14:16:43
  Original Simulation        7  23  1999 Yr    1 of   22 Time  14:16:44
  Original Simulation        7  24  1999 Yr    1 of   22 Time  14:16:44
  Original Simulation        7  25  1999 Yr    1 of   22 Time  14:16:44
  Original Simulation        7  26  1999 Yr    1 of   22 Time  14:16:45
  Original Simulation        7  27  1999 Yr    1 of   22 Time  14:16:45
  Original Simulation        7  28  1999 Yr    1 of   22 Time  14:16:45
  Original Simulation        7  29  1999 Yr    1 of   22 Time  14:16:45
  Original Simulation        7  30  1999 Yr    1 of   22 Time  14:16:46
  Original Simulation        7  31  1999 Yr    1 of   22 Time  14:16:46
  Original Simulation        8   1  1999 Yr    1 of   22 Time  14:16:46
  Original Simulation        8   2  1999 Yr    1 of   22 Time  14:16:46
  Original Simulation        8   3  1999 Yr    1 of   22 Time  14:16:47
  Original Simulation        8   4  1999 Yr    1 of   22 Time  14:16:47
  Original Simulation        8   5  1999 Yr    1 of   22 Time  14:16:47
  Original Simulation        8   6  1999 Yr    1 of   22 Time  14:16:47
  Original Simulation        8   7  1999 Yr    1 of   22 Time  14:16:48
  Original Simulation        8   8  1999 Yr    1 of   22 Time  14:16:48
  Original Simulation        8   9  1999 Yr    1 of   22 Time  14:16:48
  Original Simulation        8  10  1999 Yr    1 of   22 Time  14:16:49
  Original Simulation        8  11  1999 Yr    1 of   22 Time  14:16:49
  Original Simulation        8  12  1999 Yr    1 of   22 Time  14:16:49
  Original Simulation        8  13  1999 Yr    1 of   22 Time  14:16:49
  Original Simulation        8  14  1999 Yr    1 of   22 Time  14:16:50
  Original Simulation        8  15  1999 Yr    1 of   22 Time  14:16:50
  Original Simulation        8  16  1999 Yr    1 of   22 Time  14:16:50
  Original Simulation        8  17  1999 Yr    1 of   22 Time  14:16:50
  Original Simulation        8  18  1999 Yr    1 of   22 Time  14:16:51
  Original Simulation        8  19  1999 Yr    1 of   22 Time  14:16:51
  Original Simulation        8  20  1999 Yr    1 of   22 Time  14:16:51
  Original Simulation        8  21  1999 Yr    1 of   22 Time  14:16:52
  Original Simulation        8  22  1999 Yr    1 of   22 Time  14:16:52
  Original Simulation        8  23  1999 Yr    1 of   22 Time  14:16:52
  Original Simulation        8  24  1999 Yr    1 of   22 Time  14:16:52
  Original Simulation        8  25  1999 Yr    1 of   22 Time  14:16:53
  Original Simulation        8  26  1999 Yr    1 of   22 Time  14:16:53
  Original Simulation        8  27  1999 Yr    1 of   22 Time  14:16:53
  Original Simulation        8  28  1999 Yr    1 of   22 Time  14:16:53
  Original Simulation        8  29  1999 Yr    1 of   22 Time  14:16:54
  Original Simulation        8  30  1999 Yr    1 of   22 Time  14:16:54
  Original Simulation        8  31  1999 Yr    1 of   22 Time  14:16:54
  Original Simulation        9   1  1999 Yr    1 of   22 Time  14:16:54
  Original Simulation        9   2  1999 Yr    1 of   22 Time  14:16:55
  Original Simulation        9   3  1999 Yr    1 of   22 Time  14:16:55
  Original Simulation        9   4  1999 Yr    1 of   22 Time  14:16:55
  Original Simulation        9   5  1999 Yr    1 of   22 Time  14:16:55
  Original Simulation        9   6  1999 Yr    1 of   22 Time  14:16:56
  Original Simulation        9   7  1999 Yr    1 of   22 Time  14:16:56
  Original Simulation        9   8  1999 Yr    1 of   22 Time  14:16:56
  Original Simulation        9   9  1999 Yr    1 of   22 Time  14:16:57
  Original Simulation        9  10  1999 Yr    1 of   22 Time  14:16:57
  Original Simulation        9  11  1999 Yr    1 of   22 Time  14:16:57
  Original Simulation        9  12  1999 Yr    1 of   22 Time  14:16:57
  Original Simulation        9  13  1999 Yr    1 of   22 Time  14:16:58
  Original Simulation        9  14  1999 Yr    1 of   22 Time  14:16:58
  Original Simulation        9  15  1999 Yr    1 of   22 Time  14:16:58
  Original Simulation        9  16  1999 Yr    1 of   22 Time  14:16:58
  Original Simulation        9  17  1999 Yr    1 of   22 Time  14:16:59
  Original Simulation        9  18  1999 Yr    1 of   22 Time  14:16:59
  Original Simulation        9  19  1999 Yr    1 of   22 Time  14:16:59
  Original Simulation        9  20  1999 Yr    1 of   22 Time  14:16:59
  Original Simulation        9  21  1999 Yr    1 of   22 Time  14:17: 0
  Original Simulation        9  22  1999 Yr    1 of   22 Time  14:17: 0
  Original Simulation        9  23  1999 Yr    1 of   22 Time  14:17: 0
  Original Simulation        9  24  1999 Yr    1 of   22 Time  14:17: 1
  Original Simulation        9  25  1999 Yr    1 of   22 Time  14:17: 1
  Original Simulation        9  26  1999 Yr    1 of   22 Time  14:17: 1
  Original Simulation        9  27  1999 Yr    1 of   22 Time  14:17: 1
  Original Simulation        9  28  1999 Yr    1 of   22 Time  14:17: 2
  Original Simulation        9  29  1999 Yr    1 of   22 Time  14:17: 2
  Original Simulation        9  30  1999 Yr    1 of   22 Time  14:17: 2
  Original Simulation       10   1  1999 Yr    1 of   22 Time  14:17: 2
  Original Simulation       10   2  1999 Yr    1 of   22 Time  14:17: 3
  Original Simulation       10   3  1999 Yr    1 of   22 Time  14:17: 3
  Original Simulation       10   4  1999 Yr    1 of   22 Time  14:17: 3
  Original Simulation       10   5  1999 Yr    1 of   22 Time  14:17: 4
  Original Simulation       10   6  1999 Yr    1 of   22 Time  14:17: 4
  Original Simulation       10   7  1999 Yr    1 of   22 Time  14:17: 4
  Original Simulation       10   8  1999 Yr    1 of   22 Time  14:17: 4
  Original Simulation       10   9  1999 Yr    1 of   22 Time  14:17: 5
  Original Simulation       10  10  1999 Yr    1 of   22 Time  14:17: 5
  Original Simulation       10  11  1999 Yr    1 of   22 Time  14:17: 5
  Original Simulation       10  12  1999 Yr    1 of   22 Time  14:17: 6
  Original Simulation       10  13  1999 Yr    1 of   22 Time  14:17: 6
  Original Simulation       10  14  1999 Yr    1 of   22 Time  14:17: 6
  Original Simulation       10  15  1999 Yr    1 of   22 Time  14:17: 7
  Original Simulation       10  16  1999 Yr    1 of   22 Time  14:17: 7
  Original Simulation       10  17  1999 Yr    1 of   22 Time  14:17: 7
  Original Simulation       10  18  1999 Yr    1 of   22 Time  14:17: 7
  Original Simulation       10  19  1999 Yr    1 of   22 Time  14:17: 8
  Original Simulation       10  20  1999 Yr    1 of   22 Time  14:17: 8
  Original Simulation       10  21  1999 Yr    1 of   22 Time  14:17: 8
  Original Simulation       10  22  1999 Yr    1 of   22 Time  14:17: 9
  Original Simulation       10  23  1999 Yr    1 of   22 Time  14:17: 9
  Original Simulation       10  24  1999 Yr    1 of   22 Time  14:17: 9
  Original Simulation       10  25  1999 Yr    1 of   22 Time  14:17: 9
  Original Simulation       10  26  1999 Yr    1 of   22 Time  14:17:10
  Original Simulation       10  27  1999 Yr    1 of   22 Time  14:17:10
  Original Simulation       10  28  1999 Yr    1 of   22 Time  14:17:10
  Original Simulation       10  29  1999 Yr    1 of   22 Time  14:17:11
  Original Simulation       10  30  1999 Yr    1 of   22 Time  14:17:11
  Original Simulation       10  31  1999 Yr    1 of   22 Time  14:17:11
  Original Simulation       11   1  1999 Yr    1 of   22 Time  14:17:12
  Original Simulation       11   2  1999 Yr    1 of   22 Time  14:17:12
  Original Simulation       11   3  1999 Yr    1 of   22 Time  14:17:12
  Original Simulation       11   4  1999 Yr    1 of   22 Time  14:17:12
  Original Simulation       11   5  1999 Yr    1 of   22 Time  14:17:12
  Original Simulation       11   6  1999 Yr    1 of   22 Time  14:17:13
  Original Simulation       11   7  1999 Yr    1 of   22 Time  14:17:13
  Original Simulation       11   8  1999 Yr    1 of   22 Time  14:17:13
  Original Simulation       11   9  1999 Yr    1 of   22 Time  14:17:14
  Original Simulation       11  10  1999 Yr    1 of   22 Time  14:17:14
  Original Simulation       11  11  1999 Yr    1 of   22 Time  14:17:14
  Original Simulation       11  12  1999 Yr    1 of   22 Time  14:17:14
  Original Simulation       11  13  1999 Yr    1 of   22 Time  14:17:15
  Original Simulation       11  14  1999 Yr    1 of   22 Time  14:17:15
  Original Simulation       11  15  1999 Yr    1 of   22 Time  14:17:15
  Original Simulation       11  16  1999 Yr    1 of   22 Time  14:17:15
  Original Simulation       11  17  1999 Yr    1 of   22 Time  14:17:16
  Original Simulation       11  18  1999 Yr    1 of   22 Time  14:17:16
  Original Simulation       11  19  1999 Yr    1 of   22 Time  14:17:16
  Original Simulation       11  20  1999 Yr    1 of   22 Time  14:17:17
  Original Simulation       11  21  1999 Yr    1 of   22 Time  14:17:17
  Original Simulation       11  22  1999 Yr    1 of   22 Time  14:17:17
  Original Simulation       11  23  1999 Yr    1 of   22 Time  14:17:17
  Original Simulation       11  24  1999 Yr    1 of   22 Time  14:17:18
  Original Simulation       11  25  1999 Yr    1 of   22 Time  14:17:18
  Original Simulation       11  26  1999 Yr    1 of   22 Time  14:17:18
  Original Simulation       11  27  1999 Yr    1 of   22 Time  14:17:18
  Original Simulation       11  28  1999 Yr    1 of   22 Time  14:17:19
  Original Simulation       11  29  1999 Yr    1 of   22 Time  14:17:19
  Original Simulation       11  30  1999 Yr    1 of   22 Time  14:17:19
  Original Simulation       12   1  1999 Yr    1 of   22 Time  14:17:20
  Original Simulation       12   2  1999 Yr    1 of   22 Time  14:17:20
  Original Simulation       12   3  1999 Yr    1 of   22 Time  14:17:20
  Original Simulation       12   4  1999 Yr    1 of   22 Time  14:17:20
  Original Simulation       12   5  1999 Yr    1 of   22 Time  14:17:21
  Original Simulation       12   6  1999 Yr    1 of   22 Time  14:17:21
  Original Simulation       12   7  1999 Yr    1 of   22 Time  14:17:21
  Original Simulation       12   8  1999 Yr    1 of   22 Time  14:17:22
  Original Simulation       12   9  1999 Yr    1 of   22 Time  14:17:22
  Original Simulation       12  10  1999 Yr    1 of   22 Time  14:17:22
  Original Simulation       12  11  1999 Yr    1 of   22 Time  14:17:22
  Original Simulation       12  12  1999 Yr    1 of   22 Time  14:17:23
  Original Simulation       12  13  1999 Yr    1 of   22 Time  14:17:23
  Original Simulation       12  14  1999 Yr    1 of   22 Time  14:17:23
  Original Simulation       12  15  1999 Yr    1 of   22 Time  14:17:23
  Original Simulation       12  16  1999 Yr    1 of   22 Time  14:17:24
  Original Simulation       12  17  1999 Yr    1 of   22 Time  14:17:24
  Original Simulation       12  18  1999 Yr    1 of   22 Time  14:17:24
  Original Simulation       12  19  1999 Yr    1 of   22 Time  14:17:24
  Original Simulation       12  20  1999 Yr    1 of   22 Time  14:17:25
  Original Simulation       12  21  1999 Yr    1 of   22 Time  14:17:25
  Original Simulation       12  22  1999 Yr    1 of   22 Time  14:17:25
  Original Simulation       12  23  1999 Yr    1 of   22 Time  14:17:25
  Original Simulation       12  24  1999 Yr    1 of   22 Time  14:17:26
  Original Simulation       12  25  1999 Yr    1 of   22 Time  14:17:26
  Original Simulation       12  26  1999 Yr    1 of   22 Time  14:17:26
  Original Simulation       12  27  1999 Yr    1 of   22 Time  14:17:26
  Original Simulation       12  28  1999 Yr    1 of   22 Time  14:17:27
  Original Simulation       12  29  1999 Yr    1 of   22 Time  14:17:27
  Original Simulation       12  30  1999 Yr    1 of   22 Time  14:17:27
  Original Simulation       12  31  1999 Yr    1 of   22 Time  14:17:28
  Original Simulation        1   1  2000 Yr    2 of   22 Time  14:17:28
  Original Simulation        1   2  2000 Yr    2 of   22 Time  14:17:28
  Original Simulation        1   3  2000 Yr    2 of   22 Time  14:17:28
  Original Simulation        1   4  2000 Yr    2 of   22 Time  14:17:29
  Original Simulation        1   5  2000 Yr    2 of   22 Time  14:17:29
  Original Simulation        1   6  2000 Yr    2 of   22 Time  14:17:29
  Original Simulation        1   7  2000 Yr    2 of   22 Time  14:17:29
  Original Simulation        1   8  2000 Yr    2 of   22 Time  14:17:30
  Original Simulation        1   9  2000 Yr    2 of   22 Time  14:17:30
  Original Simulation        1  10  2000 Yr    2 of   22 Time  14:17:30
  Original Simulation        1  11  2000 Yr    2 of   22 Time  14:17:30
  Original Simulation        1  12  2000 Yr    2 of   22 Time  14:17:31
  Original Simulation        1  13  2000 Yr    2 of   22 Time  14:17:31
  Original Simulation        1  14  2000 Yr    2 of   22 Time  14:17:31
  Original Simulation        1  15  2000 Yr    2 of   22 Time  14:17:31
  Original Simulation        1  16  2000 Yr    2 of   22 Time  14:17:32
  Original Simulation        1  17  2000 Yr    2 of   22 Time  14:17:32
  Original Simulation        1  18  2000 Yr    2 of   22 Time  14:17:32
  Original Simulation        1  19  2000 Yr    2 of   22 Time  14:17:32
  Original Simulation        1  20  2000 Yr    2 of   22 Time  14:17:33
  Original Simulation        1  21  2000 Yr    2 of   22 Time  14:17:33
  Original Simulation        1  22  2000 Yr    2 of   22 Time  14:17:33
  Original Simulation        1  23  2000 Yr    2 of   22 Time  14:17:33
  Original Simulation        1  24  2000 Yr    2 of   22 Time  14:17:34
  Original Simulation        1  25  2000 Yr    2 of   22 Time  14:17:34
  Original Simulation        1  26  2000 Yr    2 of   22 Time  14:17:34
  Original Simulation        1  27  2000 Yr    2 of   22 Time  14:17:35
  Original Simulation        1  28  2000 Yr    2 of   22 Time  14:17:35
  Original Simulation        1  29  2000 Yr    2 of   22 Time  14:17:35
  Original Simulation        1  30  2000 Yr    2 of   22 Time  14:17:35
  Original Simulation        1  31  2000 Yr    2 of   22 Time  14:17:36
  Original Simulation        2   1  2000 Yr    2 of   22 Time  14:17:36
  Original Simulation        2   2  2000 Yr    2 of   22 Time  14:17:36
  Original Simulation        2   3  2000 Yr    2 of   22 Time  14:17:36
  Original Simulation        2   4  2000 Yr    2 of   22 Time  14:17:37
  Original Simulation        2   5  2000 Yr    2 of   22 Time  14:17:37
  Original Simulation        2   6  2000 Yr    2 of   22 Time  14:17:37
  Original Simulation        2   7  2000 Yr    2 of   22 Time  14:17:37
  Original Simulation        2   8  2000 Yr    2 of   22 Time  14:17:38
  Original Simulation        2   9  2000 Yr    2 of   22 Time  14:17:38
  Original Simulation        2  10  2000 Yr    2 of   22 Time  14:17:38
  Original Simulation        2  11  2000 Yr    2 of   22 Time  14:17:39
  Original Simulation        2  12  2000 Yr    2 of   22 Time  14:17:39
  Original Simulation        2  13  2000 Yr    2 of   22 Time  14:17:39
  Original Simulation        2  14  2000 Yr    2 of   22 Time  14:17:39
  Original Simulation        2  15  2000 Yr    2 of   22 Time  14:17:40
  Original Simulation        2  16  2000 Yr    2 of   22 Time  14:17:40
  Original Simulation        2  17  2000 Yr    2 of   22 Time  14:17:40
  Original Simulation        2  18  2000 Yr    2 of   22 Time  14:17:40
  Original Simulation        2  19  2000 Yr    2 of   22 Time  14:17:41
  Original Simulation        2  20  2000 Yr    2 of   22 Time  14:17:41
  Original Simulation        2  21  2000 Yr    2 of   22 Time  14:17:41
  Original Simulation        2  22  2000 Yr    2 of   22 Time  14:17:42
  Original Simulation        2  23  2000 Yr    2 of   22 Time  14:17:42
  Original Simulation        2  24  2000 Yr    2 of   22 Time  14:17:42
  Original Simulation        2  25  2000 Yr    2 of   22 Time  14:17:43
  Original Simulation        2  26  2000 Yr    2 of   22 Time  14:17:43
  Original Simulation        2  27  2000 Yr    2 of   22 Time  14:17:43
  Original Simulation        2  28  2000 Yr    2 of   22 Time  14:17:43
  Original Simulation        2  29  2000 Yr    2 of   22 Time  14:17:44
  Original Simulation        3   1  2000 Yr    2 of   22 Time  14:17:44
  Original Simulation        3   2  2000 Yr    2 of   22 Time  14:17:44
  Original Simulation        3   3  2000 Yr    2 of   22 Time  14:17:44
  Original Simulation        3   4  2000 Yr    2 of   22 Time  14:17:45
  Original Simulation        3   5  2000 Yr    2 of   22 Time  14:17:45
  Original Simulation        3   6  2000 Yr    2 of   22 Time  14:17:45
  Original Simulation        3   7  2000 Yr    2 of   22 Time  14:17:46
  Original Simulation        3   8  2000 Yr    2 of   22 Time  14:17:46
  Original Simulation        3   9  2000 Yr    2 of   22 Time  14:17:46
  Original Simulation        3  10  2000 Yr    2 of   22 Time  14:17:46
  Original Simulation        3  11  2000 Yr    2 of   22 Time  14:17:47
  Original Simulation        3  12  2000 Yr    2 of   22 Time  14:17:47
  Original Simulation        3  13  2000 Yr    2 of   22 Time  14:17:47
  Original Simulation        3  14  2000 Yr    2 of   22 Time  14:17:47
  Original Simulation        3  15  2000 Yr    2 of   22 Time  14:17:48
  Original Simulation        3  16  2000 Yr    2 of   22 Time  14:17:48
  Original Simulation        3  17  2000 Yr    2 of   22 Time  14:17:48
  Original Simulation        3  18  2000 Yr    2 of   22 Time  14:17:49
  Original Simulation        3  19  2000 Yr    2 of   22 Time  14:17:49
  Original Simulation        3  20  2000 Yr    2 of   22 Time  14:17:49
  Original Simulation        3  21  2000 Yr    2 of   22 Time  14:17:50
  Original Simulation        3  22  2000 Yr    2 of   22 Time  14:17:50
  Original Simulation        3  23  2000 Yr    2 of   22 Time  14:17:50
  Original Simulation        3  24  2000 Yr    2 of   22 Time  14:17:50
  Original Simulation        3  25  2000 Yr    2 of   22 Time  14:17:51
  Original Simulation        3  26  2000 Yr    2 of   22 Time  14:17:51
  Original Simulation        3  27  2000 Yr    2 of   22 Time  14:17:51
  Original Simulation        3  28  2000 Yr    2 of   22 Time  14:17:51
  Original Simulation        3  29  2000 Yr    2 of   22 Time  14:17:52
  Original Simulation        3  30  2000 Yr    2 of   22 Time  14:17:52
  Original Simulation        3  31  2000 Yr    2 of   22 Time  14:17:52
  Original Simulation        4   1  2000 Yr    2 of   22 Time  14:17:53
  Original Simulation        4   2  2000 Yr    2 of   22 Time  14:17:53
  Original Simulation        4   3  2000 Yr    2 of   22 Time  14:17:53
  Original Simulation        4   4  2000 Yr    2 of   22 Time  14:17:54
  Original Simulation        4   5  2000 Yr    2 of   22 Time  14:17:54
  Original Simulation        4   6  2000 Yr    2 of   22 Time  14:17:54
  Original Simulation        4   7  2000 Yr    2 of   22 Time  14:17:55
  Original Simulation        4   8  2000 Yr    2 of   22 Time  14:17:55
  Original Simulation        4   9  2000 Yr    2 of   22 Time  14:17:55
  Original Simulation        4  10  2000 Yr    2 of   22 Time  14:17:55
  Original Simulation        4  11  2000 Yr    2 of   22 Time  14:17:56
  Original Simulation        4  12  2000 Yr    2 of   22 Time  14:17:56
  Original Simulation        4  13  2000 Yr    2 of   22 Time  14:17:56
  Original Simulation        4  14  2000 Yr    2 of   22 Time  14:17:56
  Original Simulation        4  15  2000 Yr    2 of   22 Time  14:17:57
  Original Simulation        4  16  2000 Yr    2 of   22 Time  14:17:57
  Original Simulation        4  17  2000 Yr    2 of   22 Time  14:17:57
  Original Simulation        4  18  2000 Yr    2 of   22 Time  14:17:58
  Original Simulation        4  19  2000 Yr    2 of   22 Time  14:17:58
  Original Simulation        4  20  2000 Yr    2 of   22 Time  14:17:58
  Original Simulation        4  21  2000 Yr    2 of   22 Time  14:17:58
  Original Simulation        4  22  2000 Yr    2 of   22 Time  14:17:59
  Original Simulation        4  23  2000 Yr    2 of   22 Time  14:17:59
  Original Simulation        4  24  2000 Yr    2 of   22 Time  14:17:59
  Original Simulation        4  25  2000 Yr    2 of   22 Time  14:18: 0
  Original Simulation        4  26  2000 Yr    2 of   22 Time  14:18: 0
  Original Simulation        4  27  2000 Yr    2 of   22 Time  14:18: 0
  Original Simulation        4  28  2000 Yr    2 of   22 Time  14:18: 0
  Original Simulation        4  29  2000 Yr    2 of   22 Time  14:18: 0
  Original Simulation        4  30  2000 Yr    2 of   22 Time  14:18: 1
  Original Simulation        5   1  2000 Yr    2 of   22 Time  14:18: 1
  Original Simulation        5   2  2000 Yr    2 of   22 Time  14:18: 1
  Original Simulation        5   3  2000 Yr    2 of   22 Time  14:18: 2
  Original Simulation        5   4  2000 Yr    2 of   22 Time  14:18: 2
  Original Simulation        5   5  2000 Yr    2 of   22 Time  14:18: 2
  Original Simulation        5   6  2000 Yr    2 of   22 Time  14:18: 3
  Original Simulation        5   7  2000 Yr    2 of   22 Time  14:18: 3
  Original Simulation        5   8  2000 Yr    2 of   22 Time  14:18: 3
  Original Simulation        5   9  2000 Yr    2 of   22 Time  14:18: 3
  Original Simulation        5  10  2000 Yr    2 of   22 Time  14:18: 4
  Original Simulation        5  11  2000 Yr    2 of   22 Time  14:18: 4
  Original Simulation        5  12  2000 Yr    2 of   22 Time  14:18: 4
  Original Simulation        5  13  2000 Yr    2 of   22 Time  14:18: 5
  Original Simulation        5  14  2000 Yr    2 of   22 Time  14:18: 5
  Original Simulation        5  15  2000 Yr    2 of   22 Time  14:18: 5
  Original Simulation        5  16  2000 Yr    2 of   22 Time  14:18: 5
  Original Simulation        5  17  2000 Yr    2 of   22 Time  14:18: 6
  Original Simulation        5  18  2000 Yr    2 of   22 Time  14:18: 6
  Original Simulation        5  19  2000 Yr    2 of   22 Time  14:18: 6
  Original Simulation        5  20  2000 Yr    2 of   22 Time  14:18: 6
  Original Simulation        5  21  2000 Yr    2 of   22 Time  14:18: 7
  Original Simulation        5  22  2000 Yr    2 of   22 Time  14:18: 7
  Original Simulation        5  23  2000 Yr    2 of   22 Time  14:18: 7
  Original Simulation        5  24  2000 Yr    2 of   22 Time  14:18: 8
  Original Simulation        5  25  2000 Yr    2 of   22 Time  14:18: 8
  Original Simulation        5  26  2000 Yr    2 of   22 Time  14:18: 8
  Original Simulation        5  27  2000 Yr    2 of   22 Time  14:18: 8
  Original Simulation        5  28  2000 Yr    2 of   22 Time  14:18: 9
  Original Simulation        5  29  2000 Yr    2 of   22 Time  14:18: 9
  Original Simulation        5  30  2000 Yr    2 of   22 Time  14:18: 9
  Original Simulation        5  31  2000 Yr    2 of   22 Time  14:18:10
  Original Simulation        6   1  2000 Yr    2 of   22 Time  14:18:10
  Original Simulation        6   2  2000 Yr    2 of   22 Time  14:18:10
  Original Simulation        6   3  2000 Yr    2 of   22 Time  14:18:10
  Original Simulation        6   4  2000 Yr    2 of   22 Time  14:18:11
  Original Simulation        6   5  2000 Yr    2 of   22 Time  14:18:11
  Original Simulation        6   6  2000 Yr    2 of   22 Time  14:18:11
  Original Simulation        6   7  2000 Yr    2 of   22 Time  14:18:12
  Original Simulation        6   8  2000 Yr    2 of   22 Time  14:18:12
  Original Simulation        6   9  2000 Yr    2 of   22 Time  14:18:12
  Original Simulation        6  10  2000 Yr    2 of   22 Time  14:18:13
  Original Simulation        6  11  2000 Yr    2 of   22 Time  14:18:13
  Original Simulation        6  12  2000 Yr    2 of   22 Time  14:18:13
  Original Simulation        6  13  2000 Yr    2 of   22 Time  14:18:13
  Original Simulation        6  14  2000 Yr    2 of   22 Time  14:18:14
  Original Simulation        6  15  2000 Yr    2 of   22 Time  14:18:14
  Original Simulation        6  16  2000 Yr    2 of   22 Time  14:18:14
  Original Simulation        6  17  2000 Yr    2 of   22 Time  14:18:15
  Original Simulation        6  18  2000 Yr    2 of   22 Time  14:18:15
  Original Simulation        6  19  2000 Yr    2 of   22 Time  14:18:15
  Original Simulation        6  20  2000 Yr    2 of   22 Time  14:18:15
  Original Simulation        6  21  2000 Yr    2 of   22 Time  14:18:16
  Original Simulation        6  22  2000 Yr    2 of   22 Time  14:18:16
  Original Simulation        6  23  2000 Yr    2 of   22 Time  14:18:16
  Original Simulation        6  24  2000 Yr    2 of   22 Time  14:18:17
  Original Simulation        6  25  2000 Yr    2 of   22 Time  14:18:17
  Original Simulation        6  26  2000 Yr    2 of   22 Time  14:18:17
  Original Simulation        6  27  2000 Yr    2 of   22 Time  14:18:17
  Original Simulation        6  28  2000 Yr    2 of   22 Time  14:18:18
  Original Simulation        6  29  2000 Yr    2 of   22 Time  14:18:18
  Original Simulation        6  30  2000 Yr    2 of   22 Time  14:18:18
  Original Simulation        7   1  2000 Yr    2 of   22 Time  14:18:18
  Original Simulation        7   2  2000 Yr    2 of   22 Time  14:18:19
  Original Simulation        7   3  2000 Yr    2 of   22 Time  14:18:19
  Original Simulation        7   4  2000 Yr    2 of   22 Time  14:18:19
  Original Simulation        7   5  2000 Yr    2 of   22 Time  14:18:20
  Original Simulation        7   6  2000 Yr    2 of   22 Time  14:18:20
  Original Simulation        7   7  2000 Yr    2 of   22 Time  14:18:20
  Original Simulation        7   8  2000 Yr    2 of   22 Time  14:18:20
  Original Simulation        7   9  2000 Yr    2 of   22 Time  14:18:21
  Original Simulation        7  10  2000 Yr    2 of   22 Time  14:18:21
  Original Simulation        7  11  2000 Yr    2 of   22 Time  14:18:21
  Original Simulation        7  12  2000 Yr    2 of   22 Time  14:18:21
  Original Simulation        7  13  2000 Yr    2 of   22 Time  14:18:22
  Original Simulation        7  14  2000 Yr    2 of   22 Time  14:18:22
  Original Simulation        7  15  2000 Yr    2 of   22 Time  14:18:22
  Original Simulation        7  16  2000 Yr    2 of   22 Time  14:18:22
  Original Simulation        7  17  2000 Yr    2 of   22 Time  14:18:23
  Original Simulation        7  18  2000 Yr    2 of   22 Time  14:18:23
  Original Simulation        7  19  2000 Yr    2 of   22 Time  14:18:23
  Original Simulation        7  20  2000 Yr    2 of   22 Time  14:18:24
  Original Simulation        7  21  2000 Yr    2 of   22 Time  14:18:24
  Original Simulation        7  22  2000 Yr    2 of   22 Time  14:18:24
  Original Simulation        7  23  2000 Yr    2 of   22 Time  14:18:25
  Original Simulation        7  24  2000 Yr    2 of   22 Time  14:18:25
  Original Simulation        7  25  2000 Yr    2 of   22 Time  14:18:25
  Original Simulation        7  26  2000 Yr    2 of   22 Time  14:18:25
  Original Simulation        7  27  2000 Yr    2 of   22 Time  14:18:26
  Original Simulation        7  28  2000 Yr    2 of   22 Time  14:18:26
  Original Simulation        7  29  2000 Yr    2 of   22 Time  14:18:26
  Original Simulation        7  30  2000 Yr    2 of   22 Time  14:18:27
  Original Simulation        7  31  2000 Yr    2 of   22 Time  14:18:27
  Original Simulation        8   1  2000 Yr    2 of   22 Time  14:18:27
  Original Simulation        8   2  2000 Yr    2 of   22 Time  14:18:27
  Original Simulation        8   3  2000 Yr    2 of   22 Time  14:18:28
  Original Simulation        8   4  2000 Yr    2 of   22 Time  14:18:28
  Original Simulation        8   5  2000 Yr    2 of   22 Time  14:18:28
  Original Simulation        8   6  2000 Yr    2 of   22 Time  14:18:28
  Original Simulation        8   7  2000 Yr    2 of   22 Time  14:18:29
  Original Simulation        8   8  2000 Yr    2 of   22 Time  14:18:29
  Original Simulation        8   9  2000 Yr    2 of   22 Time  14:18:29
  Original Simulation        8  10  2000 Yr    2 of   22 Time  14:18:30
  Original Simulation        8  11  2000 Yr    2 of   22 Time  14:18:30
  Original Simulation        8  12  2000 Yr    2 of   22 Time  14:18:30
  Original Simulation        8  13  2000 Yr    2 of   22 Time  14:18:31
  Original Simulation        8  14  2000 Yr    2 of   22 Time  14:18:31
  Original Simulation        8  15  2000 Yr    2 of   22 Time  14:18:31
  Original Simulation        8  16  2000 Yr    2 of   22 Time  14:18:31
  Original Simulation        8  17  2000 Yr    2 of   22 Time  14:18:32
  Original Simulation        8  18  2000 Yr    2 of   22 Time  14:18:32
  Original Simulation        8  19  2000 Yr    2 of   22 Time  14:18:32
  Original Simulation        8  20  2000 Yr    2 of   22 Time  14:18:33
  Original Simulation        8  21  2000 Yr    2 of   22 Time  14:18:33
  Original Simulation        8  22  2000 Yr    2 of   22 Time  14:18:33
  Original Simulation        8  23  2000 Yr    2 of   22 Time  14:18:33
  Original Simulation        8  24  2000 Yr    2 of   22 Time  14:18:34
  Original Simulation        8  25  2000 Yr    2 of   22 Time  14:18:34
  Original Simulation        8  26  2000 Yr    2 of   22 Time  14:18:34
  Original Simulation        8  27  2000 Yr    2 of   22 Time  14:18:35
  Original Simulation        8  28  2000 Yr    2 of   22 Time  14:18:35
  Original Simulation        8  29  2000 Yr    2 of   22 Time  14:18:35
  Original Simulation        8  30  2000 Yr    2 of   22 Time  14:18:35
  Original Simulation        8  31  2000 Yr    2 of   22 Time  14:18:36
  Original Simulation        9   1  2000 Yr    2 of   22 Time  14:18:36
  Original Simulation        9   2  2000 Yr    2 of   22 Time  14:18:36
  Original Simulation        9   3  2000 Yr    2 of   22 Time  14:18:37
  Original Simulation        9   4  2000 Yr    2 of   22 Time  14:18:37
  Original Simulation        9   5  2000 Yr    2 of   22 Time  14:18:37
  Original Simulation        9   6  2000 Yr    2 of   22 Time  14:18:37
  Original Simulation        9   7  2000 Yr    2 of   22 Time  14:18:38
  Original Simulation        9   8  2000 Yr    2 of   22 Time  14:18:38
  Original Simulation        9   9  2000 Yr    2 of   22 Time  14:18:38
  Original Simulation        9  10  2000 Yr    2 of   22 Time  14:18:38
  Original Simulation        9  11  2000 Yr    2 of   22 Time  14:18:39
  Original Simulation        9  12  2000 Yr    2 of   22 Time  14:18:39
  Original Simulation        9  13  2000 Yr    2 of   22 Time  14:18:39
  Original Simulation        9  14  2000 Yr    2 of   22 Time  14:18:40
  Original Simulation        9  15  2000 Yr    2 of   22 Time  14:18:40
  Original Simulation        9  16  2000 Yr    2 of   22 Time  14:18:40
  Original Simulation        9  17  2000 Yr    2 of   22 Time  14:18:40
  Original Simulation        9  18  2000 Yr    2 of   22 Time  14:18:41
  Original Simulation        9  19  2000 Yr    2 of   22 Time  14:18:41
  Original Simulation        9  20  2000 Yr    2 of   22 Time  14:18:41
  Original Simulation        9  21  2000 Yr    2 of   22 Time  14:18:41
  Original Simulation        9  22  2000 Yr    2 of   22 Time  14:18:42
  Original Simulation        9  23  2000 Yr    2 of   22 Time  14:18:42
  Original Simulation        9  24  2000 Yr    2 of   22 Time  14:18:42
  Original Simulation        9  25  2000 Yr    2 of   22 Time  14:18:43
  Original Simulation        9  26  2000 Yr    2 of   22 Time  14:18:43
  Original Simulation        9  27  2000 Yr    2 of   22 Time  14:18:43
  Original Simulation        9  28  2000 Yr    2 of   22 Time  14:18:44
  Original Simulation        9  29  2000 Yr    2 of   22 Time  14:18:44
  Original Simulation        9  30  2000 Yr    2 of   22 Time  14:18:44
  Original Simulation       10   1  2000 Yr    2 of   22 Time  14:18:44
  Original Simulation       10   2  2000 Yr    2 of   22 Time  14:18:45
  Original Simulation       10   3  2000 Yr    2 of   22 Time  14:18:45
  Original Simulation       10   4  2000 Yr    2 of   22 Time  14:18:45
  Original Simulation       10   5  2000 Yr    2 of   22 Time  14:18:45
  Original Simulation       10   6  2000 Yr    2 of   22 Time  14:18:46
  Original Simulation       10   7  2000 Yr    2 of   22 Time  14:18:46
  Original Simulation       10   8  2000 Yr    2 of   22 Time  14:18:46
  Original Simulation       10   9  2000 Yr    2 of   22 Time  14:18:46
  Original Simulation       10  10  2000 Yr    2 of   22 Time  14:18:47
  Original Simulation       10  11  2000 Yr    2 of   22 Time  14:18:47
  Original Simulation       10  12  2000 Yr    2 of   22 Time  14:18:47
  Original Simulation       10  13  2000 Yr    2 of   22 Time  14:18:48
  Original Simulation       10  14  2000 Yr    2 of   22 Time  14:18:48
  Original Simulation       10  15  2000 Yr    2 of   22 Time  14:18:48
  Original Simulation       10  16  2000 Yr    2 of   22 Time  14:18:48
  Original Simulation       10  17  2000 Yr    2 of   22 Time  14:18:49
  Original Simulation       10  18  2000 Yr    2 of   22 Time  14:18:49
  Original Simulation       10  19  2000 Yr    2 of   22 Time  14:18:49
  Original Simulation       10  20  2000 Yr    2 of   22 Time  14:18:50
  Original Simulation       10  21  2000 Yr    2 of   22 Time  14:18:50
  Original Simulation       10  22  2000 Yr    2 of   22 Time  14:18:50
  Original Simulation       10  23  2000 Yr    2 of   22 Time  14:18:51
  Original Simulation       10  24  2000 Yr    2 of   22 Time  14:18:51
  Original Simulation       10  25  2000 Yr    2 of   22 Time  14:18:51
  Original Simulation       10  26  2000 Yr    2 of   22 Time  14:18:52
  Original Simulation       10  27  2000 Yr    2 of   22 Time  14:18:52
  Original Simulation       10  28  2000 Yr    2 of   22 Time  14:18:52
  Original Simulation       10  29  2000 Yr    2 of   22 Time  14:18:52
  Original Simulation       10  30  2000 Yr    2 of   22 Time  14:18:53
  Original Simulation       10  31  2000 Yr    2 of   22 Time  14:18:53
  Original Simulation       11   1  2000 Yr    2 of   22 Time  14:18:53
  Original Simulation       11   2  2000 Yr    2 of   22 Time  14:18:54
  Original Simulation       11   3  2000 Yr    2 of   22 Time  14:18:54
  Original Simulation       11   4  2000 Yr    2 of   22 Time  14:18:54
  Original Simulation       11   5  2000 Yr    2 of   22 Time  14:18:55
  Original Simulation       11   6  2000 Yr    2 of   22 Time  14:18:55
  Original Simulation       11   7  2000 Yr    2 of   22 Time  14:18:55
  Original Simulation       11   8  2000 Yr    2 of   22 Time  14:18:56
  Original Simulation       11   9  2000 Yr    2 of   22 Time  14:18:56
  Original Simulation       11  10  2000 Yr    2 of   22 Time  14:18:56
  Original Simulation       11  11  2000 Yr    2 of   22 Time  14:18:56
  Original Simulation       11  12  2000 Yr    2 of   22 Time  14:18:57
  Original Simulation       11  13  2000 Yr    2 of   22 Time  14:18:57
  Original Simulation       11  14  2000 Yr    2 of   22 Time  14:18:57
  Original Simulation       11  15  2000 Yr    2 of   22 Time  14:18:57
  Original Simulation       11  16  2000 Yr    2 of   22 Time  14:18:58
  Original Simulation       11  17  2000 Yr    2 of   22 Time  14:18:58
  Original Simulation       11  18  2000 Yr    2 of   22 Time  14:18:58
  Original Simulation       11  19  2000 Yr    2 of   22 Time  14:18:58
  Original Simulation       11  20  2000 Yr    2 of   22 Time  14:18:59
  Original Simulation       11  21  2000 Yr    2 of   22 Time  14:18:59
  Original Simulation       11  22  2000 Yr    2 of   22 Time  14:18:59
  Original Simulation       11  23  2000 Yr    2 of   22 Time  14:19: 0
  Original Simulation       11  24  2000 Yr    2 of   22 Time  14:19: 0
  Original Simulation       11  25  2000 Yr    2 of   22 Time  14:19: 0
  Original Simulation       11  26  2000 Yr    2 of   22 Time  14:19: 0
  Original Simulation       11  27  2000 Yr    2 of   22 Time  14:19: 1
  Original Simulation       11  28  2000 Yr    2 of   22 Time  14:19: 1
  Original Simulation       11  29  2000 Yr    2 of   22 Time  14:19: 1
  Original Simulation       11  30  2000 Yr    2 of   22 Time  14:19: 2
  Original Simulation       12   1  2000 Yr    2 of   22 Time  14:19: 2
  Original Simulation       12   2  2000 Yr    2 of   22 Time  14:19: 2
  Original Simulation       12   3  2000 Yr    2 of   22 Time  14:19: 2
  Original Simulation       12   4  2000 Yr    2 of   22 Time  14:19: 3
  Original Simulation       12   5  2000 Yr    2 of   22 Time  14:19: 3
  Original Simulation       12   6  2000 Yr    2 of   22 Time  14:19: 3
  Original Simulation       12   7  2000 Yr    2 of   22 Time  14:19: 4
  Original Simulation       12   8  2000 Yr    2 of   22 Time  14:19: 4
  Original Simulation       12   9  2000 Yr    2 of   22 Time  14:19: 4
  Original Simulation       12  10  2000 Yr    2 of   22 Time  14:19: 5
  Original Simulation       12  11  2000 Yr    2 of   22 Time  14:19: 5
  Original Simulation       12  12  2000 Yr    2 of   22 Time  14:19: 5
  Original Simulation       12  13  2000 Yr    2 of   22 Time  14:19: 6
  Original Simulation       12  14  2000 Yr    2 of   22 Time  14:19: 6
  Original Simulation       12  15  2000 Yr    2 of   22 Time  14:19: 6
  Original Simulation       12  16  2000 Yr    2 of   22 Time  14:19: 7
  Original Simulation       12  17  2000 Yr    2 of   22 Time  14:19: 7
  Original Simulation       12  18  2000 Yr    2 of   22 Time  14:19: 7
  Original Simulation       12  19  2000 Yr    2 of   22 Time  14:19: 8
  Original Simulation       12  20  2000 Yr    2 of   22 Time  14:19: 8
  Original Simulation       12  21  2000 Yr    2 of   22 Time  14:19: 8
  Original Simulation       12  22  2000 Yr    2 of   22 Time  14:19: 8
  Original Simulation       12  23  2000 Yr    2 of   22 Time  14:19: 9
  Original Simulation       12  24  2000 Yr    2 of   22 Time  14:19: 9
  Original Simulation       12  25  2000 Yr    2 of   22 Time  14:19: 9
  Original Simulation       12  26  2000 Yr    2 of   22 Time  14:19: 9
  Original Simulation       12  27  2000 Yr    2 of   22 Time  14:19:10
  Original Simulation       12  28  2000 Yr    2 of   22 Time  14:19:10
  Original Simulation       12  29  2000 Yr    2 of   22 Time  14:19:10
  Original Simulation       12  30  2000 Yr    2 of   22 Time  14:19:10
  Original Simulation       12  31  2000 Yr    2 of   22 Time  14:19:11
  Original Simulation        1   1  2001 Yr    3 of   22 Time  14:19:11
  Original Simulation        1   2  2001 Yr    3 of   22 Time  14:19:11
  Original Simulation        1   3  2001 Yr    3 of   22 Time  14:19:12
  Original Simulation        1   4  2001 Yr    3 of   22 Time  14:19:12
  Original Simulation        1   5  2001 Yr    3 of   22 Time  14:19:12
  Original Simulation        1   6  2001 Yr    3 of   22 Time  14:19:12
  Original Simulation        1   7  2001 Yr    3 of   22 Time  14:19:13
  Original Simulation        1   8  2001 Yr    3 of   22 Time  14:19:13
  Original Simulation        1   9  2001 Yr    3 of   22 Time  14:19:13
  Original Simulation        1  10  2001 Yr    3 of   22 Time  14:19:14
  Original Simulation        1  11  2001 Yr    3 of   22 Time  14:19:14
  Original Simulation        1  12  2001 Yr    3 of   22 Time  14:19:14
  Original Simulation        1  13  2001 Yr    3 of   22 Time  14:19:15
  Original Simulation        1  14  2001 Yr    3 of   22 Time  14:19:15
  Original Simulation        1  15  2001 Yr    3 of   22 Time  14:19:15
  Original Simulation        1  16  2001 Yr    3 of   22 Time  14:19:16
  Original Simulation        1  17  2001 Yr    3 of   22 Time  14:19:16
  Original Simulation        1  18  2001 Yr    3 of   22 Time  14:19:16
  Original Simulation        1  19  2001 Yr    3 of   22 Time  14:19:16
  Original Simulation        1  20  2001 Yr    3 of   22 Time  14:19:17
  Original Simulation        1  21  2001 Yr    3 of   22 Time  14:19:17
  Original Simulation        1  22  2001 Yr    3 of   22 Time  14:19:17
  Original Simulation        1  23  2001 Yr    3 of   22 Time  14:19:18
  Original Simulation        1  24  2001 Yr    3 of   22 Time  14:19:18
  Original Simulation        1  25  2001 Yr    3 of   22 Time  14:19:18
  Original Simulation        1  26  2001 Yr    3 of   22 Time  14:19:19
  Original Simulation        1  27  2001 Yr    3 of   22 Time  14:19:19
  Original Simulation        1  28  2001 Yr    3 of   22 Time  14:19:19
  Original Simulation        1  29  2001 Yr    3 of   22 Time  14:19:20
  Original Simulation        1  30  2001 Yr    3 of   22 Time  14:19:20
  Original Simulation        1  31  2001 Yr    3 of   22 Time  14:19:20
  Original Simulation        2   1  2001 Yr    3 of   22 Time  14:19:21
  Original Simulation        2   2  2001 Yr    3 of   22 Time  14:19:21
  Original Simulation        2   3  2001 Yr    3 of   22 Time  14:19:21
  Original Simulation        2   4  2001 Yr    3 of   22 Time  14:19:21
  Original Simulation        2   5  2001 Yr    3 of   22 Time  14:19:22
  Original Simulation        2   6  2001 Yr    3 of   22 Time  14:19:22
  Original Simulation        2   7  2001 Yr    3 of   22 Time  14:19:22
  Original Simulation        2   8  2001 Yr    3 of   22 Time  14:19:22
  Original Simulation        2   9  2001 Yr    3 of   22 Time  14:19:23
  Original Simulation        2  10  2001 Yr    3 of   22 Time  14:19:23
  Original Simulation        2  11  2001 Yr    3 of   22 Time  14:19:23
  Original Simulation        2  12  2001 Yr    3 of   22 Time  14:19:24
  Original Simulation        2  13  2001 Yr    3 of   22 Time  14:19:24
  Original Simulation        2  14  2001 Yr    3 of   22 Time  14:19:24
  Original Simulation        2  15  2001 Yr    3 of   22 Time  14:19:25
  Original Simulation        2  16  2001 Yr    3 of   22 Time  14:19:25
  Original Simulation        2  17  2001 Yr    3 of   22 Time  14:19:25
  Original Simulation        2  18  2001 Yr    3 of   22 Time  14:19:26
  Original Simulation        2  19  2001 Yr    3 of   22 Time  14:19:26
  Original Simulation        2  20  2001 Yr    3 of   22 Time  14:19:26
  Original Simulation        2  21  2001 Yr    3 of   22 Time  14:19:26
  Original Simulation        2  22  2001 Yr    3 of   22 Time  14:19:27
  Original Simulation        2  23  2001 Yr    3 of   22 Time  14:19:27
  Original Simulation        2  24  2001 Yr    3 of   22 Time  14:19:27
  Original Simulation        2  25  2001 Yr    3 of   22 Time  14:19:28
  Original Simulation        2  26  2001 Yr    3 of   22 Time  14:19:28
  Original Simulation        2  27  2001 Yr    3 of   22 Time  14:19:28
  Original Simulation        2  28  2001 Yr    3 of   22 Time  14:19:28
  Original Simulation        3   1  2001 Yr    3 of   22 Time  14:19:29
  Original Simulation        3   2  2001 Yr    3 of   22 Time  14:19:29
  Original Simulation        3   3  2001 Yr    3 of   22 Time  14:19:29
  Original Simulation        3   4  2001 Yr    3 of   22 Time  14:19:29
  Original Simulation        3   5  2001 Yr    3 of   22 Time  14:19:30
  Original Simulation        3   6  2001 Yr    3 of   22 Time  14:19:30
  Original Simulation        3   7  2001 Yr    3 of   22 Time  14:19:30
  Original Simulation        3   8  2001 Yr    3 of   22 Time  14:19:31
  Original Simulation        3   9  2001 Yr    3 of   22 Time  14:19:31
  Original Simulation        3  10  2001 Yr    3 of   22 Time  14:19:31
  Original Simulation        3  11  2001 Yr    3 of   22 Time  14:19:31
  Original Simulation        3  12  2001 Yr    3 of   22 Time  14:19:32
  Original Simulation        3  13  2001 Yr    3 of   22 Time  14:19:32
  Original Simulation        3  14  2001 Yr    3 of   22 Time  14:19:32
  Original Simulation        3  15  2001 Yr    3 of   22 Time  14:19:33
  Original Simulation        3  16  2001 Yr    3 of   22 Time  14:19:33
  Original Simulation        3  17  2001 Yr    3 of   22 Time  14:19:33
  Original Simulation        3  18  2001 Yr    3 of   22 Time  14:19:33
  Original Simulation        3  19  2001 Yr    3 of   22 Time  14:19:34
  Original Simulation        3  20  2001 Yr    3 of   22 Time  14:19:34
  Original Simulation        3  21  2001 Yr    3 of   22 Time  14:19:34
  Original Simulation        3  22  2001 Yr    3 of   22 Time  14:19:35
  Original Simulation        3  23  2001 Yr    3 of   22 Time  14:19:35
  Original Simulation        3  24  2001 Yr    3 of   22 Time  14:19:35
  Original Simulation        3  25  2001 Yr    3 of   22 Time  14:19:36
  Original Simulation        3  26  2001 Yr    3 of   22 Time  14:19:36
  Original Simulation        3  27  2001 Yr    3 of   22 Time  14:19:36
  Original Simulation        3  28  2001 Yr    3 of   22 Time  14:19:36
  Original Simulation        3  29  2001 Yr    3 of   22 Time  14:19:37
  Original Simulation        3  30  2001 Yr    3 of   22 Time  14:19:37
  Original Simulation        3  31  2001 Yr    3 of   22 Time  14:19:37
  Original Simulation        4   1  2001 Yr    3 of   22 Time  14:19:38
  Original Simulation        4   2  2001 Yr    3 of   22 Time  14:19:38
  Original Simulation        4   3  2001 Yr    3 of   22 Time  14:19:38
  Original Simulation        4   4  2001 Yr    3 of   22 Time  14:19:38
  Original Simulation        4   5  2001 Yr    3 of   22 Time  14:19:39
  Original Simulation        4   6  2001 Yr    3 of   22 Time  14:19:39
  Original Simulation        4   7  2001 Yr    3 of   22 Time  14:19:39
  Original Simulation        4   8  2001 Yr    3 of   22 Time  14:19:39
  Original Simulation        4   9  2001 Yr    3 of   22 Time  14:19:40
  Original Simulation        4  10  2001 Yr    3 of   22 Time  14:19:40
  Original Simulation        4  11  2001 Yr    3 of   22 Time  14:19:40
  Original Simulation        4  12  2001 Yr    3 of   22 Time  14:19:41
  Original Simulation        4  13  2001 Yr    3 of   22 Time  14:19:41
  Original Simulation        4  14  2001 Yr    3 of   22 Time  14:19:41
  Original Simulation        4  15  2001 Yr    3 of   22 Time  14:19:42
  Original Simulation        4  16  2001 Yr    3 of   22 Time  14:19:42
  Original Simulation        4  17  2001 Yr    3 of   22 Time  14:19:42
  Original Simulation        4  18  2001 Yr    3 of   22 Time  14:19:42
  Original Simulation        4  19  2001 Yr    3 of   22 Time  14:19:43
  Original Simulation        4  20  2001 Yr    3 of   22 Time  14:19:43
  Original Simulation        4  21  2001 Yr    3 of   22 Time  14:19:43
  Original Simulation        4  22  2001 Yr    3 of   22 Time  14:19:43
  Original Simulation        4  23  2001 Yr    3 of   22 Time  14:19:44
  Original Simulation        4  24  2001 Yr    3 of   22 Time  14:19:44
  Original Simulation        4  25  2001 Yr    3 of   22 Time  14:19:44
  Original Simulation        4  26  2001 Yr    3 of   22 Time  14:19:45
  Original Simulation        4  27  2001 Yr    3 of   22 Time  14:19:45
  Original Simulation        4  28  2001 Yr    3 of   22 Time  14:19:45
  Original Simulation        4  29  2001 Yr    3 of   22 Time  14:19:45
  Original Simulation        4  30  2001 Yr    3 of   22 Time  14:19:46
  Original Simulation        5   1  2001 Yr    3 of   22 Time  14:19:46
  Original Simulation        5   2  2001 Yr    3 of   22 Time  14:19:46
  Original Simulation        5   3  2001 Yr    3 of   22 Time  14:19:47
  Original Simulation        5   4  2001 Yr    3 of   22 Time  14:19:47
  Original Simulation        5   5  2001 Yr    3 of   22 Time  14:19:47
  Original Simulation        5   6  2001 Yr    3 of   22 Time  14:19:48
  Original Simulation        5   7  2001 Yr    3 of   22 Time  14:19:48
  Original Simulation        5   8  2001 Yr    3 of   22 Time  14:19:48
  Original Simulation        5   9  2001 Yr    3 of   22 Time  14:19:48
  Original Simulation        5  10  2001 Yr    3 of   22 Time  14:19:49
  Original Simulation        5  11  2001 Yr    3 of   22 Time  14:19:49
  Original Simulation        5  12  2001 Yr    3 of   22 Time  14:19:49
  Original Simulation        5  13  2001 Yr    3 of   22 Time  14:19:50
  Original Simulation        5  14  2001 Yr    3 of   22 Time  14:19:50
  Original Simulation        5  15  2001 Yr    3 of   22 Time  14:19:50
  Original Simulation        5  16  2001 Yr    3 of   22 Time  14:19:50
  Original Simulation        5  17  2001 Yr    3 of   22 Time  14:19:51
  Original Simulation        5  18  2001 Yr    3 of   22 Time  14:19:51
  Original Simulation        5  19  2001 Yr    3 of   22 Time  14:19:51
  Original Simulation        5  20  2001 Yr    3 of   22 Time  14:19:52
  Original Simulation        5  21  2001 Yr    3 of   22 Time  14:19:52
  Original Simulation        5  22  2001 Yr    3 of   22 Time  14:19:52
  Original Simulation        5  23  2001 Yr    3 of   22 Time  14:19:52
  Original Simulation        5  24  2001 Yr    3 of   22 Time  14:19:53
  Original Simulation        5  25  2001 Yr    3 of   22 Time  14:19:53
  Original Simulation        5  26  2001 Yr    3 of   22 Time  14:19:53
  Original Simulation        5  27  2001 Yr    3 of   22 Time  14:19:53
  Original Simulation        5  28  2001 Yr    3 of   22 Time  14:19:54
  Original Simulation        5  29  2001 Yr    3 of   22 Time  14:19:54
  Original Simulation        5  30  2001 Yr    3 of   22 Time  14:19:54
  Original Simulation        5  31  2001 Yr    3 of   22 Time  14:19:54
  Original Simulation        6   1  2001 Yr    3 of   22 Time  14:19:55
  Original Simulation        6   2  2001 Yr    3 of   22 Time  14:19:55
  Original Simulation        6   3  2001 Yr    3 of   22 Time  14:19:55
  Original Simulation        6   4  2001 Yr    3 of   22 Time  14:19:56
  Original Simulation        6   5  2001 Yr    3 of   22 Time  14:19:56
  Original Simulation        6   6  2001 Yr    3 of   22 Time  14:19:56
  Original Simulation        6   7  2001 Yr    3 of   22 Time  14:19:56
  Original Simulation        6   8  2001 Yr    3 of   22 Time  14:19:57
  Original Simulation        6   9  2001 Yr    3 of   22 Time  14:19:57
  Original Simulation        6  10  2001 Yr    3 of   22 Time  14:19:57
  Original Simulation        6  11  2001 Yr    3 of   22 Time  14:19:58
  Original Simulation        6  12  2001 Yr    3 of   22 Time  14:19:58
  Original Simulation        6  13  2001 Yr    3 of   22 Time  14:19:58
  Original Simulation        6  14  2001 Yr    3 of   22 Time  14:19:59
  Original Simulation        6  15  2001 Yr    3 of   22 Time  14:19:59
  Original Simulation        6  16  2001 Yr    3 of   22 Time  14:19:59
  Original Simulation        6  17  2001 Yr    3 of   22 Time  14:19:59
  Original Simulation        6  18  2001 Yr    3 of   22 Time  14:20: 0
  Original Simulation        6  19  2001 Yr    3 of   22 Time  14:20: 0
  Original Simulation        6  20  2001 Yr    3 of   22 Time  14:20: 0
  Original Simulation        6  21  2001 Yr    3 of   22 Time  14:20: 1
  Original Simulation        6  22  2001 Yr    3 of   22 Time  14:20: 1
  Original Simulation        6  23  2001 Yr    3 of   22 Time  14:20: 1
  Original Simulation        6  24  2001 Yr    3 of   22 Time  14:20: 1
  Original Simulation        6  25  2001 Yr    3 of   22 Time  14:20: 2
  Original Simulation        6  26  2001 Yr    3 of   22 Time  14:20: 2
  Original Simulation        6  27  2001 Yr    3 of   22 Time  14:20: 2
  Original Simulation        6  28  2001 Yr    3 of   22 Time  14:20: 2
  Original Simulation        6  29  2001 Yr    3 of   22 Time  14:20: 3
  Original Simulation        6  30  2001 Yr    3 of   22 Time  14:20: 3
  Original Simulation        7   1  2001 Yr    3 of   22 Time  14:20: 3
  Original Simulation        7   2  2001 Yr    3 of   22 Time  14:20: 4
  Original Simulation        7   3  2001 Yr    3 of   22 Time  14:20: 4
  Original Simulation        7   4  2001 Yr    3 of   22 Time  14:20: 4
  Original Simulation        7   5  2001 Yr    3 of   22 Time  14:20: 5
  Original Simulation        7   6  2001 Yr    3 of   22 Time  14:20: 5
  Original Simulation        7   7  2001 Yr    3 of   22 Time  14:20: 5
  Original Simulation        7   8  2001 Yr    3 of   22 Time  14:20: 6
  Original Simulation        7   9  2001 Yr    3 of   22 Time  14:20: 6
  Original Simulation        7  10  2001 Yr    3 of   22 Time  14:20: 6
  Original Simulation        7  11  2001 Yr    3 of   22 Time  14:20: 6
  Original Simulation        7  12  2001 Yr    3 of   22 Time  14:20: 7
  Original Simulation        7  13  2001 Yr    3 of   22 Time  14:20: 7
  Original Simulation        7  14  2001 Yr    3 of   22 Time  14:20: 7
  Original Simulation        7  15  2001 Yr    3 of   22 Time  14:20: 7
  Original Simulation        7  16  2001 Yr    3 of   22 Time  14:20: 8
  Original Simulation        7  17  2001 Yr    3 of   22 Time  14:20: 8
  Original Simulation        7  18  2001 Yr    3 of   22 Time  14:20: 8
  Original Simulation        7  19  2001 Yr    3 of   22 Time  14:20: 9
  Original Simulation        7  20  2001 Yr    3 of   22 Time  14:20: 9
  Original Simulation        7  21  2001 Yr    3 of   22 Time  14:20: 9
  Original Simulation        7  22  2001 Yr    3 of   22 Time  14:20: 9
  Original Simulation        7  23  2001 Yr    3 of   22 Time  14:20:10
  Original Simulation        7  24  2001 Yr    3 of   22 Time  14:20:10
  Original Simulation        7  25  2001 Yr    3 of   22 Time  14:20:10
  Original Simulation        7  26  2001 Yr    3 of   22 Time  14:20:11
  Original Simulation        7  27  2001 Yr    3 of   22 Time  14:20:11
  Original Simulation        7  28  2001 Yr    3 of   22 Time  14:20:11
  Original Simulation        7  29  2001 Yr    3 of   22 Time  14:20:11
  Original Simulation        7  30  2001 Yr    3 of   22 Time  14:20:12
  Original Simulation        7  31  2001 Yr    3 of   22 Time  14:20:12
  Original Simulation        8   1  2001 Yr    3 of   22 Time  14:20:12
  Original Simulation        8   2  2001 Yr    3 of   22 Time  14:20:12
  Original Simulation        8   3  2001 Yr    3 of   22 Time  14:20:13
  Original Simulation        8   4  2001 Yr    3 of   22 Time  14:20:13
  Original Simulation        8   5  2001 Yr    3 of   22 Time  14:20:13
  Original Simulation        8   6  2001 Yr    3 of   22 Time  14:20:13
  Original Simulation        8   7  2001 Yr    3 of   22 Time  14:20:14
  Original Simulation        8   8  2001 Yr    3 of   22 Time  14:20:14
  Original Simulation        8   9  2001 Yr    3 of   22 Time  14:20:14
  Original Simulation        8  10  2001 Yr    3 of   22 Time  14:20:15
  Original Simulation        8  11  2001 Yr    3 of   22 Time  14:20:15
  Original Simulation        8  12  2001 Yr    3 of   22 Time  14:20:15
  Original Simulation        8  13  2001 Yr    3 of   22 Time  14:20:15
  Original Simulation        8  14  2001 Yr    3 of   22 Time  14:20:16
  Original Simulation        8  15  2001 Yr    3 of   22 Time  14:20:16
  Original Simulation        8  16  2001 Yr    3 of   22 Time  14:20:16
  Original Simulation        8  17  2001 Yr    3 of   22 Time  14:20:16
  Original Simulation        8  18  2001 Yr    3 of   22 Time  14:20:17
  Original Simulation        8  19  2001 Yr    3 of   22 Time  14:20:17
  Original Simulation        8  20  2001 Yr    3 of   22 Time  14:20:17
  Original Simulation        8  21  2001 Yr    3 of   22 Time  14:20:17
  Original Simulation        8  22  2001 Yr    3 of   22 Time  14:20:18
  Original Simulation        8  23  2001 Yr    3 of   22 Time  14:20:18
  Original Simulation        8  24  2001 Yr    3 of   22 Time  14:20:18
  Original Simulation        8  25  2001 Yr    3 of   22 Time  14:20:18
  Original Simulation        8  26  2001 Yr    3 of   22 Time  14:20:19
  Original Simulation        8  27  2001 Yr    3 of   22 Time  14:20:19
  Original Simulation        8  28  2001 Yr    3 of   22 Time  14:20:19
  Original Simulation        8  29  2001 Yr    3 of   22 Time  14:20:19
  Original Simulation        8  30  2001 Yr    3 of   22 Time  14:20:20
  Original Simulation        8  31  2001 Yr    3 of   22 Time  14:20:20
  Original Simulation        9   1  2001 Yr    3 of   22 Time  14:20:20
  Original Simulation        9   2  2001 Yr    3 of   22 Time  14:20:20
  Original Simulation        9   3  2001 Yr    3 of   22 Time  14:20:21
  Original Simulation        9   4  2001 Yr    3 of   22 Time  14:20:21
  Original Simulation        9   5  2001 Yr    3 of   22 Time  14:20:21
  Original Simulation        9   6  2001 Yr    3 of   22 Time  14:20:22
  Original Simulation        9   7  2001 Yr    3 of   22 Time  14:20:22
  Original Simulation        9   8  2001 Yr    3 of   22 Time  14:20:22
  Original Simulation        9   9  2001 Yr    3 of   22 Time  14:20:22
  Original Simulation        9  10  2001 Yr    3 of   22 Time  14:20:23
  Original Simulation        9  11  2001 Yr    3 of   22 Time  14:20:23
  Original Simulation        9  12  2001 Yr    3 of   22 Time  14:20:23
  Original Simulation        9  13  2001 Yr    3 of   22 Time  14:20:23
  Original Simulation        9  14  2001 Yr    3 of   22 Time  14:20:24
  Original Simulation        9  15  2001 Yr    3 of   22 Time  14:20:24
  Original Simulation        9  16  2001 Yr    3 of   22 Time  14:20:24
  Original Simulation        9  17  2001 Yr    3 of   22 Time  14:20:24
  Original Simulation        9  18  2001 Yr    3 of   22 Time  14:20:25
  Original Simulation        9  19  2001 Yr    3 of   22 Time  14:20:25
  Original Simulation        9  20  2001 Yr    3 of   22 Time  14:20:25
  Original Simulation        9  21  2001 Yr    3 of   22 Time  14:20:26
  Original Simulation        9  22  2001 Yr    3 of   22 Time  14:20:26
  Original Simulation        9  23  2001 Yr    3 of   22 Time  14:20:26
  Original Simulation        9  24  2001 Yr    3 of   22 Time  14:20:27
  Original Simulation        9  25  2001 Yr    3 of   22 Time  14:20:27
  Original Simulation        9  26  2001 Yr    3 of   22 Time  14:20:27
  Original Simulation        9  27  2001 Yr    3 of   22 Time  14:20:27
  Original Simulation        9  28  2001 Yr    3 of   22 Time  14:20:28
  Original Simulation        9  29  2001 Yr    3 of   22 Time  14:20:28
  Original Simulation        9  30  2001 Yr    3 of   22 Time  14:20:28
  Original Simulation       10   1  2001 Yr    3 of   22 Time  14:20:28
  Original Simulation       10   2  2001 Yr    3 of   22 Time  14:20:29
  Original Simulation       10   3  2001 Yr    3 of   22 Time  14:20:29
  Original Simulation       10   4  2001 Yr    3 of   22 Time  14:20:29
  Original Simulation       10   5  2001 Yr    3 of   22 Time  14:20:30
  Original Simulation       10   6  2001 Yr    3 of   22 Time  14:20:30
  Original Simulation       10   7  2001 Yr    3 of   22 Time  14:20:30
  Original Simulation       10   8  2001 Yr    3 of   22 Time  14:20:30
  Original Simulation       10   9  2001 Yr    3 of   22 Time  14:20:31
  Original Simulation       10  10  2001 Yr    3 of   22 Time  14:20:31
  Original Simulation       10  11  2001 Yr    3 of   22 Time  14:20:31
  Original Simulation       10  12  2001 Yr    3 of   22 Time  14:20:31
  Original Simulation       10  13  2001 Yr    3 of   22 Time  14:20:32
  Original Simulation       10  14  2001 Yr    3 of   22 Time  14:20:32
  Original Simulation       10  15  2001 Yr    3 of   22 Time  14:20:32
  Original Simulation       10  16  2001 Yr    3 of   22 Time  14:20:33
  Original Simulation       10  17  2001 Yr    3 of   22 Time  14:20:33
  Original Simulation       10  18  2001 Yr    3 of   22 Time  14:20:33
  Original Simulation       10  19  2001 Yr    3 of   22 Time  14:20:33
  Original Simulation       10  20  2001 Yr    3 of   22 Time  14:20:34
  Original Simulation       10  21  2001 Yr    3 of   22 Time  14:20:34
  Original Simulation       10  22  2001 Yr    3 of   22 Time  14:20:34
  Original Simulation       10  23  2001 Yr    3 of   22 Time  14:20:34
  Original Simulation       10  24  2001 Yr    3 of   22 Time  14:20:35
  Original Simulation       10  25  2001 Yr    3 of   22 Time  14:20:35
  Original Simulation       10  26  2001 Yr    3 of   22 Time  14:20:35
  Original Simulation       10  27  2001 Yr    3 of   22 Time  14:20:36
  Original Simulation       10  28  2001 Yr    3 of   22 Time  14:20:36
  Original Simulation       10  29  2001 Yr    3 of   22 Time  14:20:36
  Original Simulation       10  30  2001 Yr    3 of   22 Time  14:20:37
  Original Simulation       10  31  2001 Yr    3 of   22 Time  14:20:37
  Original Simulation       11   1  2001 Yr    3 of   22 Time  14:20:37
  Original Simulation       11   2  2001 Yr    3 of   22 Time  14:20:37
  Original Simulation       11   3  2001 Yr    3 of   22 Time  14:20:38
  Original Simulation       11   4  2001 Yr    3 of   22 Time  14:20:38
  Original Simulation       11   5  2001 Yr    3 of   22 Time  14:20:38
  Original Simulation       11   6  2001 Yr    3 of   22 Time  14:20:38
  Original Simulation       11   7  2001 Yr    3 of   22 Time  14:20:39
  Original Simulation       11   8  2001 Yr    3 of   22 Time  14:20:39
  Original Simulation       11   9  2001 Yr    3 of   22 Time  14:20:39
  Original Simulation       11  10  2001 Yr    3 of   22 Time  14:20:40
  Original Simulation       11  11  2001 Yr    3 of   22 Time  14:20:40
  Original Simulation       11  12  2001 Yr    3 of   22 Time  14:20:40
  Original Simulation       11  13  2001 Yr    3 of   22 Time  14:20:40
  Original Simulation       11  14  2001 Yr    3 of   22 Time  14:20:41
  Original Simulation       11  15  2001 Yr    3 of   22 Time  14:20:41
  Original Simulation       11  16  2001 Yr    3 of   22 Time  14:20:41
  Original Simulation       11  17  2001 Yr    3 of   22 Time  14:20:41
  Original Simulation       11  18  2001 Yr    3 of   22 Time  14:20:42
  Original Simulation       11  19  2001 Yr    3 of   22 Time  14:20:42
  Original Simulation       11  20  2001 Yr    3 of   22 Time  14:20:42
  Original Simulation       11  21  2001 Yr    3 of   22 Time  14:20:42
  Original Simulation       11  22  2001 Yr    3 of   22 Time  14:20:43
  Original Simulation       11  23  2001 Yr    3 of   22 Time  14:20:43
  Original Simulation       11  24  2001 Yr    3 of   22 Time  14:20:43
  Original Simulation       11  25  2001 Yr    3 of   22 Time  14:20:44
  Original Simulation       11  26  2001 Yr    3 of   22 Time  14:20:44
  Original Simulation       11  27  2001 Yr    3 of   22 Time  14:20:44
  Original Simulation       11  28  2001 Yr    3 of   22 Time  14:20:44
  Original Simulation       11  29  2001 Yr    3 of   22 Time  14:20:45
  Original Simulation       11  30  2001 Yr    3 of   22 Time  14:20:45
  Original Simulation       12   1  2001 Yr    3 of   22 Time  14:20:45
  Original Simulation       12   2  2001 Yr    3 of   22 Time  14:20:45
  Original Simulation       12   3  2001 Yr    3 of   22 Time  14:20:46
  Original Simulation       12   4  2001 Yr    3 of   22 Time  14:20:46
  Original Simulation       12   5  2001 Yr    3 of   22 Time  14:20:46
  Original Simulation       12   6  2001 Yr    3 of   22 Time  14:20:46
  Original Simulation       12   7  2001 Yr    3 of   22 Time  14:20:47
  Original Simulation       12   8  2001 Yr    3 of   22 Time  14:20:47
  Original Simulation       12   9  2001 Yr    3 of   22 Time  14:20:47
  Original Simulation       12  10  2001 Yr    3 of   22 Time  14:20:47
  Original Simulation       12  11  2001 Yr    3 of   22 Time  14:20:48
  Original Simulation       12  12  2001 Yr    3 of   22 Time  14:20:48
  Original Simulation       12  13  2001 Yr    3 of   22 Time  14:20:48
  Original Simulation       12  14  2001 Yr    3 of   22 Time  14:20:48
  Original Simulation       12  15  2001 Yr    3 of   22 Time  14:20:49
  Original Simulation       12  16  2001 Yr    3 of   22 Time  14:20:49
  Original Simulation       12  17  2001 Yr    3 of   22 Time  14:20:49
  Original Simulation       12  18  2001 Yr    3 of   22 Time  14:20:49
  Original Simulation       12  19  2001 Yr    3 of   22 Time  14:20:50
  Original Simulation       12  20  2001 Yr    3 of   22 Time  14:20:50
  Original Simulation       12  21  2001 Yr    3 of   22 Time  14:20:50
  Original Simulation       12  22  2001 Yr    3 of   22 Time  14:20:50
  Original Simulation       12  23  2001 Yr    3 of   22 Time  14:20:51
  Original Simulation       12  24  2001 Yr    3 of   22 Time  14:20:51
  Original Simulation       12  25  2001 Yr    3 of   22 Time  14:20:51
  Original Simulation       12  26  2001 Yr    3 of   22 Time  14:20:51
  Original Simulation       12  27  2001 Yr    3 of   22 Time  14:20:52
  Original Simulation       12  28  2001 Yr    3 of   22 Time  14:20:52
  Original Simulation       12  29  2001 Yr    3 of   22 Time  14:20:52
  Original Simulation       12  30  2001 Yr    3 of   22 Time  14:20:52
  Original Simulation       12  31  2001 Yr    3 of   22 Time  14:20:52
  Original Simulation        1   1  2002 Yr    4 of   22 Time  14:20:53
  Original Simulation        1   2  2002 Yr    4 of   22 Time  14:20:53
  Original Simulation        1   3  2002 Yr    4 of   22 Time  14:20:53
  Original Simulation        1   4  2002 Yr    4 of   22 Time  14:20:53
  Original Simulation        1   5  2002 Yr    4 of   22 Time  14:20:54
  Original Simulation        1   6  2002 Yr    4 of   22 Time  14:20:54
[...]
  Original Simulation        3  31  2020 Yr   22 of   22 Time  14:45:39
  Original Simulation        4   1  2020 Yr   22 of   22 Time  14:45:39
  Original Simulation        4   2  2020 Yr   22 of   22 Time  14:45:40
  Original Simulation        4   3  2020 Yr   22 of   22 Time  14:45:40
  Original Simulation        4   4  2020 Yr   22 of   22 Time  14:45:40
  Original Simulation        4   5  2020 Yr   22 of   22 Time  14:45:40
  Original Simulation        4   6  2020 Yr   22 of   22 Time  14:45:40
  Original Simulation        4   7  2020 Yr   22 of   22 Time  14:45:41
  Original Simulation        4   8  2020 Yr   22 of   22 Time  14:45:41
  Original Simulation        4   9  2020 Yr   22 of   22 Time  14:45:41
  Original Simulation        4  10  2020 Yr   22 of   22 Time  14:45:41
  Original Simulation        4  11  2020 Yr   22 of   22 Time  14:45:41
  Original Simulation        4  12  2020 Yr   22 of   22 Time  14:45:42
  Original Simulation        4  13  2020 Yr   22 of   22 Time  14:45:42
  Original Simulation        4  14  2020 Yr   22 of   22 Time  14:45:42
  Original Simulation        4  15  2020 Yr   22 of   22 Time  14:45:42
  Original Simulation        4  16  2020 Yr   22 of   22 Time  14:45:42
  Original Simulation        4  17  2020 Yr   22 of   22 Time  14:45:43
  Original Simulation        4  18  2020 Yr   22 of   22 Time  14:45:43
  Original Simulation        4  19  2020 Yr   22 of   22 Time  14:45:43
  Original Simulation        4  20  2020 Yr   22 of   22 Time  14:45:43
  Original Simulation        4  21  2020 Yr   22 of   22 Time  14:45:43
  Original Simulation        4  22  2020 Yr   22 of   22 Time  14:45:44
  Original Simulation        4  23  2020 Yr   22 of   22 Time  14:45:44
  Original Simulation        4  24  2020 Yr   22 of   22 Time  14:45:44
  Original Simulation        4  25  2020 Yr   22 of   22 Time  14:45:44
  Original Simulation        4  26  2020 Yr   22 of   22 Time  14:45:44
  Original Simulation        4  27  2020 Yr   22 of   22 Time  14:45:44
  Original Simulation        4  28  2020 Yr   22 of   22 Time  14:45:45
  Original Simulation        4  29  2020 Yr   22 of   22 Time  14:45:45
  Original Simulation        4  30  2020 Yr   22 of   22 Time  14:45:45
  Original Simulation        5   1  2020 Yr   22 of   22 Time  14:45:45
  Original Simulation        5   2  2020 Yr   22 of   22 Time  14:45:45
  Original Simulation        5   3  2020 Yr   22 of   22 Time  14:45:46
  Original Simulation        5   4  2020 Yr   22 of   22 Time  14:45:46
  Original Simulation        5   5  2020 Yr   22 of   22 Time  14:45:46
  Original Simulation        5   6  2020 Yr   22 of   22 Time  14:45:46
  Original Simulation        5   7  2020 Yr   22 of   22 Time  14:45:46
  Original Simulation        5   8  2020 Yr   22 of   22 Time  14:45:47
  Original Simulation        5   9  2020 Yr   22 of   22 Time  14:45:47
  Original Simulation        5  10  2020 Yr   22 of   22 Time  14:45:47
  Original Simulation        5  11  2020 Yr   22 of   22 Time  14:45:47
  Original Simulation        5  12  2020 Yr   22 of   22 Time  14:45:47
  Original Simulation        5  13  2020 Yr   22 of   22 Time  14:45:48
  Original Simulation        5  14  2020 Yr   22 of   22 Time  14:45:48
  Original Simulation        5  15  2020 Yr   22 of   22 Time  14:45:48
  Original Simulation        5  16  2020 Yr   22 of   22 Time  14:45:48
  Original Simulation        5  17  2020 Yr   22 of   22 Time  14:45:48
  Original Simulation        5  18  2020 Yr   22 of   22 Time  14:45:49
  Original Simulation        5  19  2020 Yr   22 of   22 Time  14:45:49
  Original Simulation        5  20  2020 Yr   22 of   22 Time  14:45:49
  Original Simulation        5  21  2020 Yr   22 of   22 Time  14:45:49
  Original Simulation        5  22  2020 Yr   22 of   22 Time  14:45:49
  Original Simulation        5  23  2020 Yr   22 of   22 Time  14:45:50
  Original Simulation        5  24  2020 Yr   22 of   22 Time  14:45:50
  Original Simulation        5  25  2020 Yr   22 of   22 Time  14:45:50
  Original Simulation        5  26  2020 Yr   22 of   22 Time  14:45:50
  Original Simulation        5  27  2020 Yr   22 of   22 Time  14:45:50
  Original Simulation        5  28  2020 Yr   22 of   22 Time  14:45:51
  Original Simulation        5  29  2020 Yr   22 of   22 Time  14:45:51
  Original Simulation        5  30  2020 Yr   22 of   22 Time  14:45:51
  Original Simulation        5  31  2020 Yr   22 of   22 Time  14:45:51
  Original Simulation        6   1  2020 Yr   22 of   22 Time  14:45:51
  Original Simulation        6   2  2020 Yr   22 of   22 Time  14:45:51
  Original Simulation        6   3  2020 Yr   22 of   22 Time  14:45:52
  Original Simulation        6   4  2020 Yr   22 of   22 Time  14:45:52
  Original Simulation        6   5  2020 Yr   22 of   22 Time  14:45:52
  Original Simulation        6   6  2020 Yr   22 of   22 Time  14:45:52
  Original Simulation        6   7  2020 Yr   22 of   22 Time  14:45:52
  Original Simulation        6   8  2020 Yr   22 of   22 Time  14:45:53
  Original Simulation        6   9  2020 Yr   22 of   22 Time  14:45:53
  Original Simulation        6  10  2020 Yr   22 of   22 Time  14:45:53
  Original Simulation        6  11  2020 Yr   22 of   22 Time  14:45:53
  Original Simulation        6  12  2020 Yr   22 of   22 Time  14:45:53
  Original Simulation        6  13  2020 Yr   22 of   22 Time  14:45:54
  Original Simulation        6  14  2020 Yr   22 of   22 Time  14:45:54
  Original Simulation        6  15  2020 Yr   22 of   22 Time  14:45:54
  Original Simulation        6  16  2020 Yr   22 of   22 Time  14:45:54
  Original Simulation        6  17  2020 Yr   22 of   22 Time  14:45:54
  Original Simulation        6  18  2020 Yr   22 of   22 Time  14:45:55
  Original Simulation        6  19  2020 Yr   22 of   22 Time  14:45:55
  Original Simulation        6  20  2020 Yr   22 of   22 Time  14:45:55
  Original Simulation        6  21  2020 Yr   22 of   22 Time  14:45:55
  Original Simulation        6  22  2020 Yr   22 of   22 Time  14:45:55
  Original Simulation        6  23  2020 Yr   22 of   22 Time  14:45:56
  Original Simulation        6  24  2020 Yr   22 of   22 Time  14:45:56
  Original Simulation        6  25  2020 Yr   22 of   22 Time  14:45:56
  Original Simulation        6  26  2020 Yr   22 of   22 Time  14:45:56
  Original Simulation        6  27  2020 Yr   22 of   22 Time  14:45:56
  Original Simulation        6  28  2020 Yr   22 of   22 Time  14:45:57
  Original Simulation        6  29  2020 Yr   22 of   22 Time  14:45:57
  Original Simulation        6  30  2020 Yr   22 of   22 Time  14:45:57
  Original Simulation        7   1  2020 Yr   22 of   22 Time  14:45:57
  Original Simulation        7   2  2020 Yr   22 of   22 Time  14:45:57
  Original Simulation        7   3  2020 Yr   22 of   22 Time  14:45:58
  Original Simulation        7   4  2020 Yr   22 of   22 Time  14:45:58
  Original Simulation        7   5  2020 Yr   22 of   22 Time  14:45:58
  Original Simulation        7   6  2020 Yr   22 of   22 Time  14:45:58
  Original Simulation        7   7  2020 Yr   22 of   22 Time  14:45:58
  Original Simulation        7   8  2020 Yr   22 of   22 Time  14:45:59
  Original Simulation        7   9  2020 Yr   22 of   22 Time  14:45:59
  Original Simulation        7  10  2020 Yr   22 of   22 Time  14:45:59
  Original Simulation        7  11  2020 Yr   22 of   22 Time  14:45:59
  Original Simulation        7  12  2020 Yr   22 of   22 Time  14:45:59
  Original Simulation        7  13  2020 Yr   22 of   22 Time  14:46: 0
  Original Simulation        7  14  2020 Yr   22 of   22 Time  14:46: 0
  Original Simulation        7  15  2020 Yr   22 of   22 Time  14:46: 0
  Original Simulation        7  16  2020 Yr   22 of   22 Time  14:46: 0
  Original Simulation        7  17  2020 Yr   22 of   22 Time  14:46: 0
  Original Simulation        7  18  2020 Yr   22 of   22 Time  14:46: 1
  Original Simulation        7  19  2020 Yr   22 of   22 Time  14:46: 1
  Original Simulation        7  20  2020 Yr   22 of   22 Time  14:46: 1
  Original Simulation        7  21  2020 Yr   22 of   22 Time  14:46: 1
  Original Simulation        7  22  2020 Yr   22 of   22 Time  14:46: 1
  Original Simulation        7  23  2020 Yr   22 of   22 Time  14:46: 2
  Original Simulation        7  24  2020 Yr   22 of   22 Time  14:46: 2
  Original Simulation        7  25  2020 Yr   22 of   22 Time  14:46: 2
  Original Simulation        7  26  2020 Yr   22 of   22 Time  14:46: 2
  Original Simulation        7  27  2020 Yr   22 of   22 Time  14:46: 2
  Original Simulation        7  28  2020 Yr   22 of   22 Time  14:46: 2
  Original Simulation        7  29  2020 Yr   22 of   22 Time  14:46: 3
  Original Simulation        7  30  2020 Yr   22 of   22 Time  14:46: 3
  Original Simulation        7  31  2020 Yr   22 of   22 Time  14:46: 3
  Original Simulation        8   1  2020 Yr   22 of   22 Time  14:46: 3
  Original Simulation        8   2  2020 Yr   22 of   22 Time  14:46: 3
  Original Simulation        8   3  2020 Yr   22 of   22 Time  14:46: 4
  Original Simulation        8   4  2020 Yr   22 of   22 Time  14:46: 4
  Original Simulation        8   5  2020 Yr   22 of   22 Time  14:46: 4
  Original Simulation        8   6  2020 Yr   22 of   22 Time  14:46: 4
  Original Simulation        8   7  2020 Yr   22 of   22 Time  14:46: 4
  Original Simulation        8   8  2020 Yr   22 of   22 Time  14:46: 5
  Original Simulation        8   9  2020 Yr   22 of   22 Time  14:46: 5
  Original Simulation        8  10  2020 Yr   22 of   22 Time  14:46: 5
  Original Simulation        8  11  2020 Yr   22 of   22 Time  14:46: 5
  Original Simulation        8  12  2020 Yr   22 of   22 Time  14:46: 5
  Original Simulation        8  13  2020 Yr   22 of   22 Time  14:46: 6
  Original Simulation        8  14  2020 Yr   22 of   22 Time  14:46: 6
  Original Simulation        8  15  2020 Yr   22 of   22 Time  14:46: 6
  Original Simulation        8  16  2020 Yr   22 of   22 Time  14:46: 6
  Original Simulation        8  17  2020 Yr   22 of   22 Time  14:46: 6
  Original Simulation        8  18  2020 Yr   22 of   22 Time  14:46: 7
  Original Simulation        8  19  2020 Yr   22 of   22 Time  14:46: 7
  Original Simulation        8  20  2020 Yr   22 of   22 Time  14:46: 7
  Original Simulation        8  21  2020 Yr   22 of   22 Time  14:46: 7
  Original Simulation        8  22  2020 Yr   22 of   22 Time  14:46: 7
  Original Simulation        8  23  2020 Yr   22 of   22 Time  14:46: 8
  Original Simulation        8  24  2020 Yr   22 of   22 Time  14:46: 8
  Original Simulation        8  25  2020 Yr   22 of   22 Time  14:46: 8
  Original Simulation        8  26  2020 Yr   22 of   22 Time  14:46: 8
  Original Simulation        8  27  2020 Yr   22 of   22 Time  14:46: 8
  Original Simulation        8  28  2020 Yr   22 of   22 Time  14:46: 8
  Original Simulation        8  29  2020 Yr   22 of   22 Time  14:46: 9
  Original Simulation        8  30  2020 Yr   22 of   22 Time  14:46: 9
  Original Simulation        8  31  2020 Yr   22 of   22 Time  14:46: 9
  Original Simulation        9   1  2020 Yr   22 of   22 Time  14:46: 9
  Original Simulation        9   2  2020 Yr   22 of   22 Time  14:46: 9
  Original Simulation        9   3  2020 Yr   22 of   22 Time  14:46:10
  Original Simulation        9   4  2020 Yr   22 of   22 Time  14:46:10
  Original Simulation        9   5  2020 Yr   22 of   22 Time  14:46:10
  Original Simulation        9   6  2020 Yr   22 of   22 Time  14:46:10
  Original Simulation        9   7  2020 Yr   22 of   22 Time  14:46:10
  Original Simulation        9   8  2020 Yr   22 of   22 Time  14:46:11
  Original Simulation        9   9  2020 Yr   22 of   22 Time  14:46:11
  Original Simulation        9  10  2020 Yr   22 of   22 Time  14:46:11
  Original Simulation        9  11  2020 Yr   22 of   22 Time  14:46:11
  Original Simulation        9  12  2020 Yr   22 of   22 Time  14:46:11
  Original Simulation        9  13  2020 Yr   22 of   22 Time  14:46:12
  Original Simulation        9  14  2020 Yr   22 of   22 Time  14:46:12
  Original Simulation        9  15  2020 Yr   22 of   22 Time  14:46:12
  Original Simulation        9  16  2020 Yr   22 of   22 Time  14:46:12
  Original Simulation        9  17  2020 Yr   22 of   22 Time  14:46:12
  Original Simulation        9  18  2020 Yr   22 of   22 Time  14:46:13
  Original Simulation        9  19  2020 Yr   22 of   22 Time  14:46:13
  Original Simulation        9  20  2020 Yr   22 of   22 Time  14:46:13
  Original Simulation        9  21  2020 Yr   22 of   22 Time  14:46:13
  Original Simulation        9  22  2020 Yr   22 of   22 Time  14:46:13
  Original Simulation        9  23  2020 Yr   22 of   22 Time  14:46:14
  Original Simulation        9  24  2020 Yr   22 of   22 Time  14:46:14
  Original Simulation        9  25  2020 Yr   22 of   22 Time  14:46:14
  Original Simulation        9  26  2020 Yr   22 of   22 Time  14:46:14
  Original Simulation        9  27  2020 Yr   22 of   22 Time  14:46:14
  Original Simulation        9  28  2020 Yr   22 of   22 Time  14:46:15
  Original Simulation        9  29  2020 Yr   22 of   22 Time  14:46:15
  Original Simulation        9  30  2020 Yr   22 of   22 Time  14:46:15
  Original Simulation       10   1  2020 Yr   22 of   22 Time  14:46:15
  Original Simulation       10   2  2020 Yr   22 of   22 Time  14:46:15
  Original Simulation       10   3  2020 Yr   22 of   22 Time  14:46:16
  Original Simulation       10   4  2020 Yr   22 of   22 Time  14:46:16
  Original Simulation       10   5  2020 Yr   22 of   22 Time  14:46:16
  Original Simulation       10   6  2020 Yr   22 of   22 Time  14:46:16
  Original Simulation       10   7  2020 Yr   22 of   22 Time  14:46:16
  Original Simulation       10   8  2020 Yr   22 of   22 Time  14:46:16
  Original Simulation       10   9  2020 Yr   22 of   22 Time  14:46:17
  Original Simulation       10  10  2020 Yr   22 of   22 Time  14:46:17
  Original Simulation       10  11  2020 Yr   22 of   22 Time  14:46:17
  Original Simulation       10  12  2020 Yr   22 of   22 Time  14:46:17
  Original Simulation       10  13  2020 Yr   22 of   22 Time  14:46:18
  Original Simulation       10  14  2020 Yr   22 of   22 Time  14:46:18
  Original Simulation       10  15  2020 Yr   22 of   22 Time  14:46:18
  Original Simulation       10  16  2020 Yr   22 of   22 Time  14:46:18
  Original Simulation       10  17  2020 Yr   22 of   22 Time  14:46:18
  Original Simulation       10  18  2020 Yr   22 of   22 Time  14:46:19
  Original Simulation       10  19  2020 Yr   22 of   22 Time  14:46:19
  Original Simulation       10  20  2020 Yr   22 of   22 Time  14:46:19
  Original Simulation       10  21  2020 Yr   22 of   22 Time  14:46:19
  Original Simulation       10  22  2020 Yr   22 of   22 Time  14:46:19
  Original Simulation       10  23  2020 Yr   22 of   22 Time  14:46:19
  Original Simulation       10  24  2020 Yr   22 of   22 Time  14:46:20
  Original Simulation       10  25  2020 Yr   22 of   22 Time  14:46:20
  Original Simulation       10  26  2020 Yr   22 of   22 Time  14:46:20
  Original Simulation       10  27  2020 Yr   22 of   22 Time  14:46:20
  Original Simulation       10  28  2020 Yr   22 of   22 Time  14:46:20
  Original Simulation       10  29  2020 Yr   22 of   22 Time  14:46:21
  Original Simulation       10  30  2020 Yr   22 of   22 Time  14:46:21
  Original Simulation       10  31  2020 Yr   22 of   22 Time  14:46:21
  Original Simulation       11   1  2020 Yr   22 of   22 Time  14:46:21
  Original Simulation       11   2  2020 Yr   22 of   22 Time  14:46:21
  Original Simulation       11   3  2020 Yr   22 of   22 Time  14:46:22
  Original Simulation       11   4  2020 Yr   22 of   22 Time  14:46:22
  Original Simulation       11   5  2020 Yr   22 of   22 Time  14:46:22
  Original Simulation       11   6  2020 Yr   22 of   22 Time  14:46:22
  Original Simulation       11   7  2020 Yr   22 of   22 Time  14:46:23
  Original Simulation       11   8  2020 Yr   22 of   22 Time  14:46:23
  Original Simulation       11   9  2020 Yr   22 of   22 Time  14:46:23
  Original Simulation       11  10  2020 Yr   22 of   22 Time  14:46:23
  Original Simulation       11  11  2020 Yr   22 of   22 Time  14:46:23
  Original Simulation       11  12  2020 Yr   22 of   22 Time  14:46:23
  Original Simulation       11  13  2020 Yr   22 of   22 Time  14:46:24
  Original Simulation       11  14  2020 Yr   22 of   22 Time  14:46:24
  Original Simulation       11  15  2020 Yr   22 of   22 Time  14:46:24
  Original Simulation       11  16  2020 Yr   22 of   22 Time  14:46:24
  Original Simulation       11  17  2020 Yr   22 of   22 Time  14:46:24
  Original Simulation       11  18  2020 Yr   22 of   22 Time  14:46:25
  Original Simulation       11  19  2020 Yr   22 of   22 Time  14:46:25
  Original Simulation       11  20  2020 Yr   22 of   22 Time  14:46:25
  Original Simulation       11  21  2020 Yr   22 of   22 Time  14:46:25
  Original Simulation       11  22  2020 Yr   22 of   22 Time  14:46:25
  Original Simulation       11  23  2020 Yr   22 of   22 Time  14:46:26
  Original Simulation       11  24  2020 Yr   22 of   22 Time  14:46:26
  Original Simulation       11  25  2020 Yr   22 of   22 Time  14:46:26
  Original Simulation       11  26  2020 Yr   22 of   22 Time  14:46:26
  Original Simulation       11  27  2020 Yr   22 of   22 Time  14:46:26
  Original Simulation       11  28  2020 Yr   22 of   22 Time  14:46:26
  Original Simulation       11  29  2020 Yr   22 of   22 Time  14:46:27
  Original Simulation       11  30  2020 Yr   22 of   22 Time  14:46:27
  Original Simulation       12   1  2020 Yr   22 of   22 Time  14:46:27
  Original Simulation       12   2  2020 Yr   22 of   22 Time  14:46:27
  Original Simulation       12   3  2020 Yr   22 of   22 Time  14:46:27
  Original Simulation       12   4  2020 Yr   22 of   22 Time  14:46:28
  Original Simulation       12   5  2020 Yr   22 of   22 Time  14:46:28
  Original Simulation       12   6  2020 Yr   22 of   22 Time  14:46:28
  Original Simulation       12   7  2020 Yr   22 of   22 Time  14:46:28
  Original Simulation       12   8  2020 Yr   22 of   22 Time  14:46:28
  Original Simulation       12   9  2020 Yr   22 of   22 Time  14:46:29
  Original Simulation       12  10  2020 Yr   22 of   22 Time  14:46:29
  Original Simulation       12  11  2020 Yr   22 of   22 Time  14:46:29
  Original Simulation       12  12  2020 Yr   22 of   22 Time  14:46:29
  Original Simulation       12  13  2020 Yr   22 of   22 Time  14:46:29
  Original Simulation       12  14  2020 Yr   22 of   22 Time  14:46:29
  Original Simulation       12  15  2020 Yr   22 of   22 Time  14:46:30
  Original Simulation       12  16  2020 Yr   22 of   22 Time  14:46:30
  Original Simulation       12  17  2020 Yr   22 of   22 Time  14:46:30
  Original Simulation       12  18  2020 Yr   22 of   22 Time  14:46:30
  Original Simulation       12  19  2020 Yr   22 of   22 Time  14:46:30
  Original Simulation       12  20  2020 Yr   22 of   22 Time  14:46:31
  Original Simulation       12  21  2020 Yr   22 of   22 Time  14:46:31
  Original Simulation       12  22  2020 Yr   22 of   22 Time  14:46:31
  Original Simulation       12  23  2020 Yr   22 of   22 Time  14:46:31
  Original Simulation       12  24  2020 Yr   22 of   22 Time  14:46:31
  Original Simulation       12  25  2020 Yr   22 of   22 Time  14:46:31
  Original Simulation       12  26  2020 Yr   22 of   22 Time  14:46:32
  Original Simulation       12  27  2020 Yr   22 of   22 Time  14:46:32
  Original Simulation       12  28  2020 Yr   22 of   22 Time  14:46:32
  Original Simulation       12  29  2020 Yr   22 of   22 Time  14:46:32
  Original Simulation       12  30  2020 Yr   22 of   22 Time  14:46:32
  Original Simulation       12  31  2020 Yr   22 of   22 Time  14:46:33

 Execution successfully completed 

  Date of Sim  11/ 5/2024 Time  14:46:33
